
  EPA STORM WATER MANAGEMENT MODEL - VERSION 5.1 (Build 5.1.010)
  --------------------------------------------------------------

  Wingohocking 
  
  ERROR 188: LID capture area exceeds total impervious area for Subcatchment S1.
  
  ERROR 188: LID capture area exceeds total impervious area for Subcatchment S2.
  
  ERROR 188: LID capture area exceeds total impervious area for Subcatchment S4.
  
  ERROR 188: LID capture area exceeds total impervious area for Subcatchment S5.
  
  ERROR 188: LID capture area exceeds total impervious area for Subcatchment S6.
  
  ERROR 188: LID capture area exceeds total impervious area for Subcatchment S7.

  Analysis begun on:  Mon Feb 15 19:06:45 2016
  Analysis ended on:  Mon Feb 15 19:06:45 2016
  Total elapsed time: < 1 sec