
  EPA STORM WATER MANAGEMENT MODEL - VERSION 5.1 (Build 5.1.010)
  --------------------------------------------------------------

  Polygons for the sheds: Projected Coordinate System:NAD_1983_StatePlane_Pennsylvania_South_FIPS_3702_Feet 
  Polygons for the sheds: Projected Coordinate System:NAD_1983_StatePlane_Pennsylvania_South_FIPS_3702_Feet 
  Polygons for the sheds: Projected Coordinate System:NAD_1983_StatePlane_Pennsylvania_South_FIPS_3702_Feet 
  
  *************
  Element Count
  *************
  Number of rain gages ...... 1
  Number of subcatchments ... 145
  Number of nodes ........... 76
  Number of links ........... 76
  Number of pollutants ...... 0
  Number of land uses ....... 0
  
  
  ****************
  Raingage Summary
  ****************
                                                      Data       Recording
  Name                 Data Source                    Type       Interval 
  ------------------------------------------------------------------------
  GAGE1                rain_data_philly.dat          
  
  
  ********************
  Subcatchment Summary
  ********************
  Name                       Area     Width   %Imperv    %Slope Rain Gage            Outlet              
  -----------------------------------------------------------------------------------------------------------
  CHEWSTA_shed               5.13    945.00     55.12    5.1648 GAGE1                TT14-275            
  CHEWSTB_shed               8.62   1226.00     15.27   13.5463 GAGE1                TT14-275            
  CLEARVIEW_shed             2.98    721.00     68.88    8.2804 GAGE1                TT14-286            
  T14-A1_shed               99.01   4153.00     61.86    6.6143 GAGE1                TT14-006            
  T14-A2_shed              138.27   4908.00     47.54    5.5028 GAGE1                TT14-016            
  T14-A3_shed               98.68   4147.00     55.81    5.9027 GAGE1                TT14-030            
  T14-A4_shed               91.79   3999.00     73.22    4.6798 GAGE1                TT14-044            
  T14-A5_shed               15.27   1631.00     88.82    4.5005 GAGE1                TT14-048            
  T14-B_shed               327.26   7551.00     65.47    3.4501 GAGE1                TT14-904            
  T14-C1_shed               74.48   3602.00     84.91    4.6450 GAGE1                TT14-048            
  T14-C2_shed               72.21   3547.00     71.31    5.8267 GAGE1                TT14-058            
  T14-C3_shed               29.40   2263.00     61.46    3.7465 GAGE1                TT14-068            
  T14-C4_shed               17.84   1763.00     80.89    4.7208 GAGE1                TT14-068            
  T14-D_shed                81.14   3760.00     49.98    3.6339 GAGE1                TT14-106            
  T14-E_shed               153.01   5163.00     62.96    4.0992 GAGE1                TT14-076            
  T14-F_shed                23.84   2038.00     29.72    5.6956 GAGE1                TT14-076            
  T14-G_shed                55.59   3112.00     66.08    4.4413 GAGE1                TT14-076            
  T14-H_shed                 2.19    618.00     66.15   20.4101 GAGE1                TT14-092            
  T14-J_shed               148.01   5078.00     71.06    5.1622 GAGE1                TT14-306            
  T14-K1_shed               25.55   2110.00     66.17    1.9451 GAGE1                TT14-306            
  T14-K2_shed               25.77   2119.00     79.80    5.0437 GAGE1                TT14-312            
  T14-K3_shed              328.15   7562.00     59.07    6.5841 GAGE1                TT14-312            
  T14-L1_shed                6.84   1092.00     89.62    3.3775 GAGE1                TT14-406            
  T14-L2_shed              105.35   4284.00     66.70    6.1219 GAGE1                TT14-418            
  T14-M1_shed               67.21   3422.00     70.14    5.2613 GAGE1                TT14-202            
  T14-M2_shed               77.25   3669.00     65.38    8.3501 GAGE1                TT14-222            
  T14-P1_shed              106.64   4311.00     36.24    8.7182 GAGE1                TT14-228            
  T14-P2_shed               36.28   2514.00     48.31    8.3055 GAGE1                TT14-240            
  T14-P3_shed               94.70   4062.00     53.40    7.7216 GAGE1                TT14-243            
  T14-P4_shed               60.49   3247.00     51.05    8.6727 GAGE1                TT14-248            
  T14-P5_shed               31.05   2326.00     43.67    9.0507 GAGE1                TT14-262            
  T14-R1_shed               73.62   3582.00     64.25    6.4070 GAGE1                TT14-262            
  T14-R2_shed               64.46   3351.00     50.55    4.6868 GAGE1                TT14-814            
  T14-R3_shed               29.84   2280.00     69.08    3.0616 GAGE1                TT14-828            
  T14-R4_shed               23.46   2022.00     72.59    4.6880 GAGE1                TT14-828            
  T14-R5_shed               72.04   3543.00     54.03    5.2836 GAGE1                TT14-834            
  T14-R6_shed               60.67   3251.00     48.77    3.6605 GAGE1                TT14-834            
  T14-R7_shed               73.82   3586.00     45.44    4.4664 GAGE1                TT14-848            
  T14-T_shed                 6.05   1027.00     79.71    4.4655 GAGE1                TT14-112            
  T14-U_shed                13.50   1534.00     77.62    7.3625 GAGE1                TT14-112            
  TT14-262A_shed            95.49   4079.00     58.65    7.2167 GAGE1                TT14-262            
  TT14-263A_shed            15.20   1627.00     38.58    6.8504 GAGE1                TT14-263            
  TT14-264A_shed            22.33   1973.00     63.42    7.7536 GAGE1                TT14-264            
  TT14-264B_shed             2.35    640.00     56.69   16.0470 GAGE1                TT14-264            
  TT14-264C_shed            26.04   2130.00     53.43    5.4776 GAGE1                TT14-264            
  TT14-264D_shed            22.12   1963.00     63.23    4.2933 GAGE1                TT14-264            
  TT14-264E_shed             2.58    670.00     78.84    9.3642 GAGE1                TT14-264            
  TT14-266A_shed             1.50    511.00     81.19    6.4237 GAGE1                TT14-268            
  TT14-266B_shed             3.70    803.00     90.08    5.6761 GAGE1                TT14-268            
  TT14-270A_shed             4.51    886.00     54.27    9.0885 GAGE1                TT14-268            
  TT14-270B_shed             3.12    737.00     35.03    6.3066 GAGE1                TT14-268            
  TT14-272A_shed             3.42    772.00     44.73    8.5089 GAGE1                TT14-275            
  TT14-274A_shed             2.08    602.00     85.84    4.3110 GAGE1                TT14-275            
  TT14-274B_shed            11.11   1391.00     60.58    8.7356 GAGE1                TT14-275            
  TT14-274C_shed            16.67   1704.00     61.86    7.8600 GAGE1                TT14-275            
  TT14-278A_shed             5.74   1000.00     67.35   12.9272 GAGE1                TT14-280            
  TT14-278B_shed            12.67   1486.00     58.41    7.3345 GAGE1                TT14-280            
  TT14-278C_shed             2.67    682.00     81.92    6.1641 GAGE1                TT14-280            
  TT14-280A_shed             1.85    568.00     61.93   10.2883 GAGE1                TT14-280            
  TT14-282A_shed            39.75   2632.00     64.22    7.4516 GAGE1                TT14-280            
  TT14-284A_shed             2.94    716.00     59.79    3.7087 GAGE1                TT14-286            
  TT14-284B_shed             0.55    310.00     69.24    4.3028 GAGE1                TT14-286            
  TT14-284C_shed             0.95    407.00     85.75    2.3486 GAGE1                TT14-286            
  TT14-286A_shed             2.56    668.00     78.26    5.0568 GAGE1                TT14-286            
  TT14-288A_shed             0.43    274.00     82.84    2.7076 GAGE1                TT14-286            
  TT14-288B_shed             6.60   1072.00     70.84   12.1775 GAGE1                TT14-286            
  TT14-288C_shed             3.21    748.00     46.19    8.6243 GAGE1                TT14-286            
  TT14-291A_shed            18.07   1774.00     59.44    7.7606 GAGE1                TT14-291            
  TT14-291B_shed             5.33    964.00     65.68    5.4610 GAGE1                TT14-291            
  TT14-291C_shed             0.58    318.00     92.36    0.0293 GAGE1                TT14-291            
  TT14-291D_shed            85.18   3853.00     24.54    7.1724 GAGE1                TT14-291            
  TT14-294A_shed             1.85    568.00     60.11    3.4355 GAGE1                TT14-296            
  TT14-294B_shed             0.71    352.00     62.98    7.0827 GAGE1                TT14-296            
  TT14-294C_shed            14.12   1569.00     51.41    9.3086 GAGE1                TT14-296            
  TT14-296A_shed             0.96    409.00     81.79    4.4320 GAGE1                TT14-296            
  TT14-296B_shed           186.82   5705.00     53.86    5.5072 GAGE1                TT14-296            
  TT14-502_shed            112.50   4427.00     36.19    9.5180 GAGE1                TT14-502            
  TT14-524_shed             85.18   3853.00     65.79    5.8370 GAGE1                TT14-524            
  TT14-530_shed             89.78   3955.00     72.61    6.7967 GAGE1                TT14-530            
  TT14-544_shed             31.09   2327.00     68.91    8.4910 GAGE1                TT14-546            
  TT14-552A_shed            47.94   2890.00     67.34    5.3960 GAGE1                TT14-554            
  TT14-552B_shed           105.38   4285.00     56.16    4.0840 GAGE1                TT14-554            
  TT14-554_shed             12.55   1479.00     62.53    4.3423 GAGE1                TT14-554            
  TT14-558_shed            121.62   4603.00     63.63    3.5397 GAGE1                TT14-560            
  TT14-560_shed             29.10   2252.00     61.54    5.6022 GAGE1                TT14-560            
  TT14-574_shed            150.12   5114.00     49.37    5.8044 GAGE1                TT14-574            
  TT14-584_shed            143.95   5008.00     55.98    5.9178 GAGE1                TT14-582            
  TT14-602A_shed             1.86    569.00     83.39    9.3377 GAGE1                TT14-296            
  TT14-602B_shed             6.37   1054.00     43.80    6.2733 GAGE1                TT14-296            
  TT14-602C_shed            36.63   2526.00     42.88    7.0148 GAGE1                TT14-296            
  TT14-602D_shed             3.85    819.00     55.71    5.0698 GAGE1                TT14-296            
  TT14-606A_shed             2.91    712.00     62.20    8.6558 GAGE1                TT14-606            
  TT14-606B_shed             5.32    963.00     63.73    5.9962 GAGE1                TT14-606            
  TT14-610A_shed             0.62    329.00     66.53    2.3854 GAGE1                TT14-612            
  TT14-610B_shed             0.84    383.00     71.02    6.4988 GAGE1                TT14-612            
  TT14-610C_shed            53.32   3048.00     48.18    8.1023 GAGE1                TT14-612            
  TT14-610D_shed             3.62    794.00     49.47    4.6156 GAGE1                TT14-612            
  TT14-612A_shed             2.48    657.00     54.28    5.4626 GAGE1                TT14-612            
  TT14-612B_shed             0.77    366.00     60.70    5.4389 GAGE1                TT14-612            
  TT14-612C_shed             5.96   1019.00     67.18    5.9432 GAGE1                TT14-612            
  TT14-614A_shed             2.34    639.00     48.64    6.3496 GAGE1                TT14-616            
  TT14-614B_shed             0.87    389.00     65.41    5.8590 GAGE1                TT14-616            
  TT14-614C_shed             4.31    867.00     71.41    7.0414 GAGE1                TT14-616            
  TT14-616A_shed             2.33    637.00     65.53    5.7363 GAGE1                TT14-616            
  TT14-616B_shed             4.00    835.00     65.86    6.5364 GAGE1                TT14-616            
  TT14-618A_shed            14.09   1567.00     66.26    7.2702 GAGE1                TT14-622            
  TT14-620A_shed             3.46    776.00     63.96    7.3269 GAGE1                TT14-622            
  TT14-620B_shed            92.26   4009.00     49.77    6.4510 GAGE1                TT14-622            
  TT14-622A_shed             4.20    855.00     63.61    6.4604 GAGE1                TT14-622            
  TT14-624A_shed             3.46    776.00     64.01    6.2178 GAGE1                TT14-622            
  TT14-630A_shed             7.72   1160.00     51.84    7.5646 GAGE1                TT14-622            
  TT14-636A_shed             1.03    424.00     66.54    6.6110 GAGE1                TT14-636            
  TT14-636B_shed             5.74   1000.00     53.45    6.0380 GAGE1                TT14-636            
  TT14-639A_shed             1.75    552.00     64.57    6.3578 GAGE1                TT14-639            
  TT14-639B_shed             9.81   1307.00     44.85   11.9940 GAGE1                TT14-639            
  TT14-639C_shed            10.13   1329.00     48.05    7.4148 GAGE1                TT14-639            
  TT14-640A_shed             3.48    779.00     43.61    6.5414 GAGE1                TT14-642            
  TT14-642A_shed            23.68   2031.00     33.71    7.0016 GAGE1                TT14-642            
  TT14-642B_shed             2.14    611.00     57.98   11.4478 GAGE1                TT14-642            
  TT14-642C_shed             6.73   1083.00     45.41    6.3176 GAGE1                TT14-642            
  TT14-644A_shed             3.43    773.00     36.66    4.9399 GAGE1                TT14-642            
  TT14-646A_shed            73.42   3577.00     51.82    6.1808 GAGE1                TT14-646            
  TT14-648A_shed            47.95   2890.00     41.33    6.2150 GAGE1                TT14-646            
  TT14-648B_shed             3.55    786.00     54.98    8.1076 GAGE1                TT14-646            
  TT14-658A_shed            22.00   1958.00     43.94    7.3366 GAGE1                TT14-660            
  TT14-658B_shed             9.66   1297.00     52.68    7.8042 GAGE1                TT14-660            
  TT14-660A_shed             3.35    764.00     45.31    6.1643 GAGE1                TT14-660            
  TT14-666A_shed             6.87   1094.00     57.50    6.5173 GAGE1                TT14-666            
  TT14-668A_shed             3.91    825.00     38.03    5.8384 GAGE1                TT14-666            
  TT14-676A_shed             3.99    834.00     46.58    5.9884 GAGE1                TT14-676            
  TT14-684A_shed             3.20    747.00     44.46    5.3639 GAGE1                TT14-688            
  TT14-684B_shed             1.19    455.00     58.03    6.6967 GAGE1                TT14-688            
  TT14-688A_shed             1.62    531.00     51.17    5.7306 GAGE1                TT14-688            
  TT14-688B_shed             0.77    366.00     67.52    6.3366 GAGE1                TT14-688            
  TT14-688C_shed             3.27    755.00     61.60    5.2865 GAGE1                TT14-688            
  TT14-690A_shed             5.05    938.00     51.49    2.7878 GAGE1                TT14-692            
  TT14-690B_shed             1.07    432.00     47.07    5.0811 GAGE1                TT14-692            
  TT14-692A_shed             5.82   1007.00     46.68    4.6122 GAGE1                TT14-692            
  TT14-702_shed             43.93   2767.00     67.37    6.5474 GAGE1                TT14-702            
  TT14-706_shed             60.21   3239.00     54.78    5.1472 GAGE1                TT14-708            
  TT14-708_shed             82.20   3785.00     46.69    5.6262 GAGE1                TT14-708            
  TT14-720_shed            132.26   4801.00     57.49    6.5093 GAGE1                TT14-716            
  TT14-736_shed             83.15   3806.00     53.65    5.1102 GAGE1                TT14-738            
  TT14-740_shed             50.24   2959.00     50.09    4.5462 GAGE1                TT14-738            
  TT14-746_shed             51.49   2995.00     38.94    4.2342 GAGE1                TT14-746            


  *******************
  LID Control Summary
  *******************
                                   No. of        Unit        Unit      % Area    % Imperv
  Subcatchment     LID Control      Units        Area       Width     Covered     Treated
  ---------------------------------------------------------------------------------------
  T14-A1_shed      MorrisTT             3     2272.00        5.00        0.16        3.02
  T14-A1_shed      RainBarrel         151       60.50        0.00        0.21       24.59
  T14-A2_shed      MorrisTT             5     2272.00        5.00        0.19        4.69
  T14-A2_shed      RainBarrel         151       60.50        0.00        0.15       22.88
  T14-A3_shed      MorrisTT             1     2272.00        5.00        0.05        1.12
  T14-A3_shed      RainBarrel          56       60.50        0.00        0.08       10.16
  T14-A4_shed      MorrisTT            16     2272.00        5.00        0.91       14.68
  T14-A4_shed      RainBarrel           2       60.50        0.00        0.00        0.29
  T14-B_shed       MorrisTT            24     2272.00        5.00        0.38        6.91
  T14-B_shed       RainBarrel          13       60.50        0.00        0.01        0.60
  T14-C1_shed      MorrisTT            13     2272.00        5.00        0.91       12.67
  T14-C1_shed      RainBarrel         120       60.50        0.00        0.22       18.77
  T14-C2_shed      MorrisTT             5     2272.00        5.00        0.36        5.99
  T14-C2_shed      RainBarrel          15       60.50        0.00        0.03        2.90
  T14-D_shed       MorrisTT             5     2272.00        5.00        0.32        7.60
  T14-D_shed       RainBarrel          92       60.50        0.00        0.16       22.54
  T14-E_shed       MorrisTT            16     2272.00        5.00        0.55       10.24
  T14-E_shed       RainBarrel         184       60.50        0.00        0.17       18.94
  T14-G_shed       RainBarrel          24       60.50        0.00        0.06        6.53
  T14-J_shed       MorrisTT            48     2272.00        5.00        1.69       28.13
  T14-J_shed       RainBarrel          11       60.50        0.00        0.01        1.02
  T14-K3_shed      MorrisTT             1     2272.00        5.00        0.02        0.32
  T14-K3_shed      RainBarrel         228       60.50        0.00        0.10       11.76
  T14-M1_shed      RainBarrel         136       60.50        0.00        0.28       28.85
  T14-M2_shed      MorrisTT             1     2272.00        5.00        0.07        1.22
  T14-M2_shed      RainBarrel         141       60.50        0.00        0.25       27.89
  T14-P1_shed      RainBarrel           2       60.50        0.00        0.00        0.52
  T14-P3_shed      RainBarrel          15       60.50        0.00        0.02        2.97
  T14-P4_shed      MorrisTT             8     2272.00        5.00        0.69       15.97
  T14-P4_shed      RainBarrel           1       60.50        0.00        0.00        0.32
  T14-R1_shed      MorrisTT            10     2272.00        5.00        0.71       13.03
  T14-R1_shed      RainBarrel         106       60.50        0.00        0.20       22.16
  T14-R2_shed      RainBarrel          31       60.50        0.00        0.07        9.51
  T14-R5_shed      MorrisTT             1     2272.00        5.00        0.07        1.58
  T14-R5_shed      RainBarrel           9       60.50        0.00        0.02        2.31
  T14-R6_shed      MorrisTT            10     2272.00        5.00        0.86       20.83
  T14-R6_shed      RainBarrel           3       60.50        0.00        0.01        1.00
  T14-R7_shed      RainBarrel          37       60.50        0.00        0.07       11.03
  TT14-262A_shed   MorrisTT             3     2272.00        5.00        0.16        3.30
  TT14-262A_shed   RainBarrel          16       60.50        0.00        0.02        2.85
  TT14-291D_shed   MorrisTT             8     2272.00        5.00        0.49       23.59
  TT14-291D_shed   RainBarrel          28       60.50        0.00        0.05       13.13
  TT14-296B_shed   MorrisTT            19     2272.00        5.00        0.53       11.64
  TT14-296B_shed   RainBarrel         118       60.50        0.00        0.09       11.61
  TT14-502_shed    RainBarrel          38       60.50        0.00        0.05        9.33
  TT14-524_shed    MorrisTT            20     2272.00        5.00        1.22       22.00
  TT14-524_shed    RainBarrel          36       60.50        0.00        0.06        6.31
  TT14-530_shed    MorrisTT            18     2272.00        5.00        1.05       17.02
  TT14-530_shed    RainBarrel          46       60.50        0.00        0.07        6.96
  TT14-552A_shed   MorrisTT             2     2272.00        5.00        0.22        3.82
  TT14-552A_shed   RainBarrel          27       60.50        0.00        0.08        8.34
  TT14-552B_shed   MorrisTT             1     2272.00        5.00        0.05        1.04
  TT14-552B_shed   RainBarrel          36       60.50        0.00        0.05        6.08
  TT14-558_shed    MorrisTT             3     2272.00        5.00        0.13        2.39
  TT14-558_shed    RainBarrel           3       60.50        0.00        0.00        0.39
  TT14-574_shed    MorrisTT            16     2272.00        5.00        0.56       13.31
  TT14-574_shed    RainBarrel         133       60.50        0.00        0.12       17.75
  TT14-584_shed    RainBarrel          25       60.50        0.00        0.02        3.10
  TT14-610C_shed   MorrisTT             6     2272.00        5.00        0.59       14.39
  TT14-610C_shed   RainBarrel          43       60.50        0.00        0.11       16.54
  TT14-620B_shed   MorrisTT             9     2272.00        5.00        0.51       12.08
  TT14-620B_shed   RainBarrel          21       60.50        0.00        0.03        4.53
  TT14-646A_shed   MorrisTT             9     2272.00        5.00        0.64       14.58
  TT14-646A_shed   RainBarrel          35       60.50        0.00        0.07        9.09
  TT14-648A_shed   RainBarrel          32       60.50        0.00        0.09       16.15
  TT14-702_shed    MorrisTT             6     2272.00        5.00        0.71       12.50
  TT14-702_shed    RainBarrel           2       60.50        0.00        0.01        0.67
  TT14-706_shed    MorrisTT             6     2272.00        5.00        0.52       11.21
  TT14-706_shed    RainBarrel          16       60.50        0.00        0.04        4.80
  TT14-708_shed    MorrisTT             3     2272.00        5.00        0.19        4.82
  TT14-708_shed    RainBarrel          18       60.50        0.00        0.03        4.67
  TT14-720_shed    MorrisTT             4     2272.00        5.00        0.16        3.24
  TT14-720_shed    RainBarrel          43       60.50        0.00        0.05        5.64
  TT14-736_shed    MorrisTT             3     2272.00        5.00        0.19        4.14
  TT14-736_shed    RainBarrel          54       60.50        0.00        0.09       12.06
  TT14-740_shed    MorrisTT             2     2272.00        5.00        0.21        4.90
  TT14-740_shed    RainBarrel          41       60.50        0.00        0.11       16.22
  TT14-746_shed    MorrisTT             4     2272.00        5.00        0.41       12.30
  TT14-746_shed    RainBarrel           5       60.50        0.00        0.01        2.47
  
  
  ************
  Node Summary
  ************
                                           Invert      Max.    Ponded    External
  Name                 Type                 Elev.     Depth      Area    Inflow  
  -------------------------------------------------------------------------------
  TT14-006             JUNCTION             27.51     87.39       0.0
  TT14-044             JUNCTION             42.38     78.42       0.0
  TT14-030             JUNCTION             36.52     64.98       0.0
  TT14-904             JUNCTION             43.58     67.12       0.0
  TT14-048             JUNCTION             44.52     79.98       0.0
  TT14-058             JUNCTION             49.57     29.53       0.0
  TT14-068             JUNCTION             53.44     55.86       0.0
  TT14-106             JUNCTION             53.83     64.87       0.0
  TT14-076             JUNCTION             57.57     71.33       0.0
  TT14-092             JUNCTION             68.16     51.84       0.0
  TT14-112             JUNCTION             68.08     58.22       0.0
  TT14-202             JUNCTION             72.43     25.97       0.0
  TT14-406             JUNCTION             77.83     37.07       0.0
  TT14-418             JUNCTION             86.72     50.38       0.0
  TT14-306             JUNCTION             69.20     54.80       0.0
  TT14-312             JUNCTION             89.85     64.05       0.0
  TT14-222             JUNCTION             82.70     54.50       0.0
  TT14-228             JUNCTION             88.00     78.00       0.0
  TT14-502             JUNCTION             92.61     27.29       0.0
  TT14-524             JUNCTION            124.63     40.47       0.0
  TT14-240             JUNCTION            119.64     68.16       0.0
  TT14-243             JUNCTION            128.55    111.75       0.0
  TT14-248             JUNCTION            141.51    100.00       0.0
  TT14-546             JUNCTION            159.48    100.00       0.0
  TT14-530             JUNCTION            134.72     80.28       0.0
  TT14-262             JUNCTION            161.00     51.90       0.0
  TT14-814             JUNCTION            172.88     45.22       0.0
  TT14-263             JUNCTION            169.19     81.31       0.0
  TT14-828             JUNCTION            199.43     39.57       0.0
  TT14-834             JUNCTION            217.92     27.98       0.0
  TT14-264             JUNCTION            180.16    100.00       0.0
  TT14-268             JUNCTION            191.54     53.86       0.0
  TT14-554             JUNCTION            171.70     33.40       0.0
  TT14-560             JUNCTION            185.60     36.60       0.0
  TT14-574             JUNCTION            198.62     41.28       0.0
  TT14-582             JUNCTION            204.52     66.98       0.0
  TT14-275             JUNCTION            200.39    100.00       0.0
  TT14-280             JUNCTION            208.48    100.00       0.0
  TT14-286             JUNCTION            214.29     95.71       0.0
  TT14-291             JUNCTION            222.40    103.00       0.0
  TT14-296             JUNCTION            228.48     30.42       0.0
  TT14-606             JUNCTION            232.91     59.09       0.0
  TT14-746             JUNCTION            319.04    100.00       0.0
  TT14-738             JUNCTION            303.71    100.00       0.0
  TT14-716             JUNCTION            268.81     82.69       0.0
  TT14-708             JUNCTION            260.50     36.30       0.0
  TT14-702             JUNCTION            248.90    100.00       0.0
  TT14-612             JUNCTION            242.53    100.00       0.0
  TT14-616             JUNCTION            245.92    100.00       0.0
  TT14-622             JUNCTION            251.34     26.86       0.0
  TT14-636             JUNCTION            260.84     77.26       0.0
  TT14-639             JUNCTION            263.69     31.32       0.0
  TT14-642             JUNCTION            268.42    100.00       0.0
  TT14-646             JUNCTION            274.44     38.16       0.0
  TT14-660             JUNCTION            306.23     65.07       0.0
  TT14-666             JUNCTION            311.00    100.00       0.0
  TT14-676             JUNCTION            316.00    100.00       0.0
  TT14-688             JUNCTION            321.00    100.00       0.0
  TT14-692             JUNCTION            326.00    100.00       0.0
  TT14-848             JUNCTION            244.19     34.31       0.0
  TT14-016             JUNCTION             28.96     79.34       0.0
  T14_1_1090           JUNCTION             36.94     67.56       0.0
  T14_1_1160           JUNCTION             37.73     66.57       0.0
  T14_1_1440_west_split JUNCTION             47.67     58.03       0.0
  T14_1_2390_east      JUNCTION             68.64     29.46       0.0
  T14_1_2410           JUNCTION             69.22    100.00       0.0
  T14_1_1520_west      JUNCTION             68.48     58.82       0.0
  T14_2_230            JUNCTION            112.90     77.10       0.0
  T14_2_2040           JUNCTION            273.38     21.62       0.0
  T14_2_2070           JUNCTION            273.74     72.36       0.0
  T14_2_2120           JUNCTION            276.38     47.92       0.0
  T14_2_2530           JUNCTION            310.30     68.30       0.0
  T14_3_640            JUNCTION            159.90     87.31       0.0
  T14_3_3_10           JUNCTION            166.82     57.98       0.0
  T14_3_1340           JUNCTION            237.51     32.29       0.0
  outfall              OUTFALL              24.00     21.00       0.0
  
  
  ************
  Link Summary
  ************
  Name             From Node        To Node          Type            Length    %Slope Roughness
  ---------------------------------------------------------------------------------------------
  C1               TT14-016         TT14-006         CONDUIT          695.0    0.2086    0.0130
  C2               TT14-030         TT14-016         CONDUIT         2844.6    0.2658    0.0130
  C3               TT14-904         TT14-030         CONDUIT          710.9    0.9929    0.0150
  C4               T14_1_1090       TT14-030         CONDUIT          843.4    0.0496    0.0130
  C5               T14_1_1160       T14_1_1090       CONDUIT          261.3    0.3023    0.0100
  C6               TT14-044         T14_1_1160       CONDUIT         1421.4    0.3271    0.0130
  C7               TT14-048         TT14-044         CONDUIT          638.4    0.3354    0.0130
  C8               T14_1_1440_west_split TT14-048         CONDUIT          536.0    0.5877    0.0130
  C9               TT14-106         T14_1_1440_west_split CONDUIT         2372.7    0.2596    0.0130
  C10              TT14-112         TT14-106         CONDUIT         2664.7    0.5346    0.0130
  C11              TT14-076         TT14-068         CONDUIT         1061.0    0.3893    0.0150
  C12              TT14-092         TT14-076         CONDUIT         1906.2    0.5556    0.0150
  C13              TT14-058         TT14-048         CONDUIT         1331.1    0.3794    0.0130
  C14              TT14-068         TT14-058         CONDUIT          904.2    0.4280    0.0100
  C15              T14_1_2390_east  TT14-092         CONDUIT          347.7    0.1369    0.0130
  C16              TT14-306         T14_1_2410       CONDUIT          368.7    2.7285    0.0150
  C17              T14_1_2410       T14_1_2390_east  CONDUIT           94.1    0.6206    0.0130
  C18              T14_1_2410       T14_1_1520_west  CONDUIT           75.6    0.9789    0.0130
  C19              T14_1_1520_west  TT14-112         CONDUIT          102.0    0.3961    0.0130
  C20              TT14-202         T14_1_2410       CONDUIT          133.0    2.4142    0.0100
  C21              TT14-312         TT14-306         CONDUIT          133.0   15.7193    0.0100
  C22              TT14-406         T14_1_2390_east  CONDUIT          896.7    1.0254    0.0130
  C23              TT14-418         TT14-406         CONDUIT         1341.9    0.6625    0.0130
  C24              TT14-222         TT14-202         CONDUIT         1841.0    0.5579    0.0130
  C25              TT14-228         TT14-222         CONDUIT          868.6    0.6102    0.0130
  C26              TT14-502         TT14-228         CONDUIT          112.2    7.2368    0.0130
  C27              T14_2_230        TT14-502         CONDUIT         2408.2    0.8425    0.0130
  C28              TT14-524         T14_2_230        CONDUIT         1030.9    1.1378    0.0130
  C29              TT14-530         TT14-524         CONDUIT         1030.9    0.9789    0.0150
  C30              TT14-546         TT14-530         CONDUIT         1641.5    1.5085    0.0150
  C31              TT14-554         TT14-546         CONDUIT          884.0    1.3827    0.0150
  C32              TT14-560         TT14-554         CONDUIT         1100.2    1.2635    0.0150
  C33              TT14-574         TT14-560         CONDUIT         1306.4    0.9969    0.0150
  C34              TT14-582         TT14-574         CONDUIT          972.9    0.6062    0.0150
  C35              TT14-702         TT14-582         CONDUIT         2477.0    1.7921    0.0150
  C36              TT14-708         TT14-702         CONDUIT          929.5    1.2478    0.0130
  C37              TT14-716         TT14-708         CONDUIT         1124.0    0.7393    0.0130
  C38              T14_2_2040       TT14-716         CONDUIT          736.9    0.6202    0.0130
  C39              T14_2_2070       T14_2_2040       CONDUIT           31.0    1.1452    0.0150
  C40              T14_2_2120       T14_2_2070       CONDUIT          231.4    1.1453    0.0130
  C41              TT14-738         T14_2_2120       CONDUIT         2076.9    1.3158    0.0130
  C42              T14_2_2530       TT14-738         CONDUIT          499.6    1.3193    0.0130
  C43              TT14-746         T14_2_2530       CONDUIT          554.3    1.5771    0.0150
  C44              TT14-240         TT14-228         CONDUIT         2468.4    1.2819    0.0130
  C45              TT14-243         TT14-240         CONDUIT          621.7    1.4332    0.0130
  C46              TT14-248         TT14-243         CONDUIT          743.4    1.7441    0.0130
  C47              T14_3_640        TT14-248         CONDUIT         1057.3    1.7388    0.0130
  C48              TT14-262         T14_3_640        CONDUIT         1194.3    0.0925    0.0150
  C49              T14_3_3_10       TT14-262         CONDUIT          129.4    0.1935    0.0150
  C50              TT14-814         T14_3_3_10       CONDUIT          646.9    0.9376    0.0150
  C51              TT14-814         TT14-828         CONDUIT         4185.2   -0.6344    0.0130
  C52              TT14-834         TT14-828         CONDUIT         1126.3    1.6415    0.0130
  C53              TT14-848         TT14-834         CONDUIT         1543.2    1.7028    0.0150
  C54              TT14-263         TT14-262         CONDUIT          681.5    1.2013    0.0150
  C55              TT14-264         TT14-263         CONDUIT          945.5    1.1607    0.0150
  C56              TT14-268         TT14-264         CONDUIT          972.2    1.1707    0.0150
  C57              TT14-275         TT14-268         CONDUIT          810.7    1.0917    0.0150
  C58              TT14-280         TT14-275         CONDUIT          757.8    1.0676    0.0150
  C59              TT14-286         TT14-280         CONDUIT          579.2    1.0032    0.0150
  C60              TT14-291         TT14-286         CONDUIT          788.5    1.0286    0.0150
  C61              TT14-296         TT14-291         CONDUIT          834.7    0.7285    0.0150
  C62              TT14-606         TT14-296         CONDUIT          627.9    0.7054    0.0130
  C63              T14_3_1340       TT14-606         CONDUIT          713.5    0.6454    0.0130
  C64              TT14-612         T14_3_1340       CONDUIT          292.8    1.7130    0.0150
  C65              TT14-616         TT14-612         CONDUIT          249.6    1.3587    0.0150
  C66              TT14-622         TT14-616         CONDUIT          350.7    1.5457    0.0150
  C67              TT14-636         TT14-622         CONDUIT          653.4    1.1740    0.0130
  C68              TT14-639         TT14-636         CONDUIT          233.8    1.2169    0.0150
  C69              TT14-642         TT14-639         CONDUIT          422.9    1.1198    0.0150
  C70              TT14-646         TT14-642         CONDUIT          542.7    1.1086    0.0150
  C71              TT14-660         TT14-646         CONDUIT          990.7    3.2110    0.0150
  C72              TT14-666         TT14-660         CONDUIT          406.9    1.1718    0.0150
  C73              TT14-676         TT14-666         CONDUIT          743.3    0.6727    0.0150
  C74              TT14-688         TT14-676         CONDUIT          859.2    0.5819    0.0150
  C75              TT14-692         TT14-688         CONDUIT          251.9    1.9851    0.0150
  outflow          TT14-006         outfall          CONDUIT         1090.0    0.3220    0.0130
  
  
  *********************
  Cross Section Summary
  *********************
                                        Full     Full     Hyd.     Max.   No. of     Full
  Conduit          Shape               Depth     Area     Rad.    Width  Barrels     Flow
  ---------------------------------------------------------------------------------------
  C1               MODBASKETHANDLE     21.00   442.19     5.55    24.00        1  7235.82
  C2               MODBASKETHANDLE     21.00   442.19     5.55    24.00        1  8167.78
  C3               CIRCULAR             7.00    38.48     1.75     7.00        1   551.68
  C4               RECT_OPEN           19.00   418.00     6.97    22.00        1  3880.07
  C5               CIRCULAR            19.00   283.53     4.75    19.00        1  6546.21
  C6               CIRCULAR            19.00   283.53     4.75    19.00        1  5237.50
  C7               RECT_OPEN           18.00   378.00     6.63    21.00        1  8832.32
  C8               RECT_OPEN           15.00   255.00     5.43    17.00        1  6899.55
  C9               MODBASKETHANDLE     12.00   214.42     3.68    21.00        1  2979.44
  C10              RECT_OPEN           16.00   272.00     5.55    17.00        1  7127.18
  C11              CIRCULAR            16.00   201.06     4.00    16.00        1  3131.53
  C12              CIRCULAR            14.00   153.94     3.50    14.00        1  2620.32
  C13              CIRCULAR            17.50   240.53     4.38    17.50        1  4530.11
  C14              CIRCULAR            17.40   237.79     4.35    17.40        1  6160.06
  C15              RECT_OPEN           14.00   196.00     4.67    14.00        1  2314.82
  C16              CIRCULAR             8.00    50.27     2.00     8.00        1  1305.70
  C17              RECT_CLOSED          6.00    69.00     1.97    11.50        1   976.92
  C18              RECT_CLOSED          6.00    55.06     1.81     9.18        1   926.23
  C19              RECT_OPEN           14.00   224.00     5.09    16.00        1  4768.84
  C20              RECT_OPEN           15.00   255.00     5.43    17.00        1 18179.30
  C21              CIRCULAR             7.50    44.18     1.88     7.50        1  3957.75
  C22              RECT_OPEN            6.00    30.00     1.76     5.00        1   507.10
  C23              RECT_OPEN            6.00    30.00     1.76     5.00        1   407.60
  C24              RECT_OPEN           15.00   300.00     6.00    20.00        1  8457.19
  C25              RECT_OPEN           15.00   255.00     5.43    17.00        1  7030.50
  C26              RECT_OPEN           12.00   216.00     5.14    18.00        1 19789.67
  C27              RECT_OPEN            9.50   133.00     4.03    14.00        1  3534.03
  C28              CIRCULAR            10.00    78.54     2.50    10.00        1  1763.95
  C29              CIRCULAR             9.50    70.88     2.38     9.50        1  1236.76
  C30              CIRCULAR             9.00    63.62     2.25     9.00        1  1329.10
  C31              CIRCULAR             8.50    56.75     2.12     8.50        1  1092.59
  C32              CIRCULAR             8.50    56.75     2.12     8.50        1  1044.42
  C33              CIRCULAR             8.50    56.75     2.12     8.50        1   927.71
  C34              CIRCULAR             8.50    56.75     2.12     8.50        1   723.46
  C35              CIRCULAR             8.50    56.75     2.12     8.50        1  1243.88
  C36              RECT_OPEN            8.00    60.00     2.55     7.50        1  1431.15
  C37              RECT_OPEN            8.00    60.00     2.55     7.50        1  1101.61
  C38              RECT_OPEN            7.50    56.25     2.50     7.50        1   932.72
  C39              CIRCULAR             6.00    28.27     1.50     6.00        1   392.79
  C40              RECT_OPEN            6.00    36.00     2.00     6.00        1   699.07
  C41              RECT_OPEN            7.50    45.00     2.14     6.00        1   980.71
  C42              RECT_OPEN            6.00    30.00     1.76     5.00        1   575.19
  C43              CIRCULAR             5.00    19.63     1.25     5.00        1   283.46
  C44              RECT_OPEN           13.00   286.00     5.96    22.00        1 12165.15
  C45              RECT_OPEN           13.00   279.50     5.88    21.50        1 12466.38
  C46              RECT_OPEN           13.00   279.50     5.88    21.50        1 13752.22
  C47              RECT_OPEN           13.00   279.50     5.88    21.50        1 13730.99
  C48              CIRCULAR            12.00   113.10     3.00    12.00        1   708.90
  C49              CIRCULAR             7.00    38.48     1.75     7.00        1   243.53
  C50              RECT_OPEN            7.00    56.00     2.55     8.00        1  1001.46
  C51              RECT_OPEN            6.50    48.75     2.38     7.50        1   790.73
  C52              RECT_OPEN            6.00    36.00     2.00     6.00        1   836.92
  C53              CIRCULAR             5.00    19.63     1.25     5.00        1   294.54
  C54              CIRCULAR             9.00    63.62     2.25     9.00        1  1186.07
  C55              CIRCULAR             8.50    56.75     2.12     8.50        1  1001.06
  C56              CIRCULAR             8.50    56.75     2.12     8.50        1  1005.33
  C57              CIRCULAR             8.50    56.75     2.12     8.50        1   970.84
  C58              CIRCULAR             8.25    53.46     2.06     8.25        1   886.59
  C59              CIRCULAR             8.25    53.46     2.06     8.25        1   859.45
  C60              CIRCULAR             8.25    53.46     2.06     8.25        1   870.26
  C61              CIRCULAR             8.25    53.46     2.06     8.25        1   732.36
  C62              RECT_OPEN           10.00    90.00     3.10     9.00        1  1838.36
  C63              RECT_OPEN           11.50    92.00     2.97     8.00        1  1744.76
  C64              CIRCULAR             7.50    44.18     1.88     7.50        1   871.01
  C65              CIRCULAR             7.50    44.18     1.88     7.50        1   775.72
  C66              CIRCULAR             7.50    44.18     1.88     7.50        1   827.37
  C67              RECT_OPEN           10.50    73.50     2.62     7.00        1  1732.27
  C68              CIRCULAR             7.00    38.48     1.75     7.00        1   610.76
  C69              CIRCULAR             6.00    28.27     1.50     6.00        1   388.41
  C70              CIRCULAR             6.00    28.27     1.50     6.00        1   386.45
  C71              CIRCULAR             4.00    12.57     1.00     4.00        1   223.08
  C72              CIRCULAR             3.50     9.62     0.88     3.50        1    94.39
  C73              CIRCULAR             3.50     9.62     0.88     3.50        1    71.52
  C74              CIRCULAR             3.50     9.62     0.88     3.50        1    66.52
  C75              CIRCULAR             3.00     7.07     0.75     3.00        1    81.44
  outflow          MODBASKETHANDLE     21.00   442.19     5.55    24.00        1  8989.53
  
  
  
  *********************
  Rainfall File Summary
  *********************
  Station    First        Last         Recording   Periods    Periods    Periods
  ID         Date         Date         Frequency  w/Precip    Missing    Malfunc.
  -------------------------------------------------------------------------------
  PHILADELPHIA JAN-28-2007  JAN-01-2016     60 min     50601          0          0

  
  *********************************************************
  NOTE: The summary statistics displayed in this report are
  based on results found at every computational time step,  
  not just on results from each reporting time step.
  *********************************************************
  
  ****************
  Analysis Options
  ****************
  Flow Units ............... CFS
  Process Models:
    Rainfall/Runoff ........ YES
    RDII ................... NO
    Snowmelt ............... NO
    Groundwater ............ NO
    Flow Routing ........... YES
    Ponding Allowed ........ NO
    Water Quality .......... NO
  Infiltration Method ...... GREEN_AMPT
  Flow Routing Method ...... DYNWAVE
  Starting Date ............ JAN-01-2008 00:00:00
  Ending Date .............. JAN-01-2009 00:00:00
  Antecedent Dry Days ...... 0.0
  Report Time Step ......... 00:15:00
  Wet Time Step ............ 00:15:00
  Dry Time Step ............ 00:15:00
  Routing Time Step ........ 15.00 sec
  Variable Time Step ....... YES
  Maximum Trials ........... 8
  Number of Threads ........ 1
  Head Tolerance ........... 0.005000 ft
  
  
  **************************        Volume         Depth
  Runoff Quantity Continuity     acre-feet        inches
  **************************     ---------       -------
  Total Precipitation ......     11148.910        24.711
  Evaporation Loss .........       564.351         1.251
  Infiltration Loss ........      5511.867        12.217
  Surface Runoff ...........      5146.465        11.407
  Final Storage ............         1.628         0.004
  Continuity Error (%) .....        -0.676
  
  
  **************************        Volume        Volume
  Flow Routing Continuity        acre-feet      10^6 gal
  **************************     ---------     ---------
  Dry Weather Inflow .......         0.000         0.000
  Wet Weather Inflow .......      5145.099      1676.608
  Groundwater Inflow .......         0.000         0.000
  RDII Inflow ..............         0.000         0.000
  External Inflow ..........         0.000         0.000
  External Outflow .........      5140.265      1675.032
  Flooding Loss ............         0.000         0.000
  Evaporation Loss .........         2.804         0.914
  Exfiltration Loss ........         0.000         0.000
  Initial Stored Volume ....         0.001         0.000
  Final Stored Volume ......         1.423         0.464
  Continuity Error (%) .....         0.012
  
  
  ***************************
  Time-Step Critical Elements
  ***************************
  None
  
  
  ********************************
  Highest Flow Instability Indexes
  ********************************
  All links are stable.
  
  
  *************************
  Routing Time Step Summary
  *************************
  Minimum Time Step           :     4.25 sec
  Average Time Step           :    14.98 sec
  Maximum Time Step           :    15.00 sec
  Percent in Steady State     :     0.00
  Average Iterations per Step :     2.00
  Percent Not Converging      :     0.00
  
  
  ***************************
  Subcatchment Runoff Summary
  ***************************
  
  --------------------------------------------------------------------------------------------------------
                            Total      Total      Total      Total      Total       Total     Peak  Runoff
                           Precip      Runon       Evap      Infil     Runoff      Runoff   Runoff   Coeff
  Subcatchment                 in         in         in         in         in    10^6 gal      CFS
  --------------------------------------------------------------------------------------------------------
  CHEWSTA_shed              24.71       0.00       1.12      10.92      12.90        1.80     2.40   0.522
  CHEWSTB_shed              24.71       0.00       0.33      20.64       3.83        0.90     2.75   0.155
  CLEARVIEW_shed            24.71       0.00       1.38       7.56      16.06        1.30     1.56   0.650
  T14-A1_shed               24.71       0.00       1.36      13.19      10.33       27.78    33.47   0.418
  T14-A2_shed               24.71       0.00       1.05      15.84       7.95       29.84    37.23   0.322
  T14-A3_shed               24.71       0.00       1.21      12.25      11.41       30.56    36.10   0.462
  T14-A4_shed               24.71       0.00       1.61       9.15      14.13       35.22    38.81   0.572
  T14-A5_shed               24.71       0.00       1.87       2.72      20.41        8.46     8.67   0.826
  T14-B_shed                24.71       0.00       1.53       9.62      13.67      121.50   127.82   0.553
  T14-C1_shed               24.71       0.00       1.87       8.73      14.40       29.11    28.90   0.583
  T14-C2_shed               24.71       0.00       1.54       8.49      14.87       29.15    32.58   0.602
  T14-C3_shed               24.71       0.00       1.31       9.40      14.19       11.33    13.13   0.574
  T14-C4_shed               24.71       0.00       1.70       4.65      18.62        9.02     9.69   0.754
  T14-D_shed                24.71       0.00       1.10      15.69       8.05       17.74    22.25   0.326
  T14-E_shed                24.71       0.00       1.42      13.28      10.15       42.16    48.18   0.411
  T14-F_shed                24.71       0.00       0.63      17.17       7.04        4.56     7.18   0.285
  T14-G_shed                24.71       0.00       1.43       9.27      14.20       21.43    24.39   0.574
  T14-H_shed                24.71       0.00       1.31       8.22      15.47        0.92     1.14   0.626
  T14-J_shed                24.71       0.00       1.57      11.95      11.34       45.59    51.12   0.459
  T14-K1_shed               24.71       0.00       1.44       8.25      15.21       10.55    11.73   0.615
  T14-K2_shed               24.71       0.00       1.69       4.92      18.35       12.84    13.83   0.743
  T14-K3_shed               24.71       0.00       1.34      11.64      11.85      105.58   116.43   0.480
  T14-L1_shed               24.71       0.00       1.86       2.52      20.64        3.83     3.90   0.835
  T14-L2_shed               24.71       0.00       1.46       8.13      15.29       43.75    48.09   0.619
  T14-M1_shed               24.71       0.00       1.54      11.29      12.11       22.09    24.62   0.490
  T14-M2_shed               24.71       0.00       1.42      12.56      10.94       22.95    27.52   0.443
  T14-P1_shed               24.71       0.00       0.78      15.64       8.42       24.39    32.11   0.341
  T14-P2_shed               24.71       0.00       1.01      12.61      11.27       11.10    14.38   0.456
  T14-P3_shed               24.71       0.00       1.15      11.75      11.98       30.80    36.81   0.485
  T14-P4_shed               24.71       0.00       1.08      13.91       9.90       16.25    21.13   0.400
  T14-P5_shed               24.71       0.00       0.91      13.74      10.23        8.63    11.83   0.414
  T14-R1_shed               24.71       0.00       1.39      13.91       9.59       19.18    23.72   0.388
  T14-R2_shed               24.71       0.00       1.09      13.19      10.59       18.53    22.65   0.428
  T14-R3_shed               24.71       0.00       1.49       7.54      15.88       12.87    14.32   0.643
  T14-R4_shed               24.71       0.00       1.54       6.68      16.74       10.66    11.91   0.677
  T14-R5_shed               24.71       0.00       1.17      11.72      11.99       23.45    27.80   0.485
  T14-R6_shed               24.71       0.00       1.05      15.02       8.78       14.47    18.14   0.355
  T14-R7_shed               24.71       0.00       0.99      14.49       9.37       18.78    23.37   0.379
  T14-T_shed                24.71       0.00       1.64       4.93      18.44        3.03     3.30   0.746
  T14-U_shed                24.71       0.00       1.60       5.44      17.95        6.58     7.26   0.726
  TT14-262A_shed            24.71       0.00       1.27      10.94      12.67       32.86    38.40   0.513
  TT14-263A_shed            24.71       0.00       0.80      14.98       9.10        3.75     5.65   0.368
  TT14-264A_shed            24.71       0.00       1.32       8.91      14.72        8.92    10.69   0.596
  TT14-264B_shed            24.71       0.00       1.13      10.52      13.32        0.85     1.17   0.539
  TT14-264C_shed            24.71       0.00       1.12      11.36      12.42        8.78    10.92   0.503
  TT14-264D_shed            24.71       0.00       1.33       8.96      14.63        8.79    10.29   0.592
  TT14-264E_shed            24.71       0.00       1.57       5.14      18.32        1.28     1.41   0.741
  TT14-266A_shed            24.71       0.00       1.62       4.56      18.86        0.77     0.83   0.763
  TT14-266B_shed            24.71       0.00       1.83       2.41      20.82        2.09     2.12   0.842
  TT14-270A_shed            24.71       0.00       1.09      11.12      12.73        1.56     2.15   0.515
  TT14-270B_shed            24.71       0.00       0.72      15.81       8.35        0.71     1.28   0.338
  TT14-272A_shed            24.71       0.00       0.90      13.44      10.57        0.98     1.54   0.428
  TT14-274A_shed            24.71       0.00       1.73       3.44      19.88        1.12     1.17   0.805
  TT14-274B_shed            24.71       0.00       1.24       9.59      14.12        4.26     5.37   0.572
  TT14-274C_shed            24.71       0.00       1.28       9.29      14.38        6.51     7.97   0.582
  TT14-278A_shed            24.71       0.00       1.35       7.93      15.71        2.45     2.97   0.636
  TT14-278B_shed            24.71       0.00       1.20      10.13      13.61        4.68     5.94   0.551
  TT14-278C_shed            24.71       0.00       1.65       4.39      19.00        1.38     1.48   0.769
  TT14-280A_shed            24.71       0.00       1.23       9.25      14.50        0.73     0.94   0.587
  TT14-282A_shed            24.71       0.00       1.36       8.72      14.85       16.03    18.64   0.601
  TT14-284A_shed            24.71       0.00       1.21       9.78      13.97        1.12     1.44   0.565
  TT14-284B_shed            24.71       0.00       1.37       7.46      16.17        0.24     0.29   0.654
  TT14-284C_shed            24.71       0.00       1.72       3.46      19.87        0.51     0.53   0.804
  TT14-286A_shed            24.71       0.00       1.58       5.28      18.17        1.26     1.40   0.735
  TT14-288A_shed            24.71       0.00       1.64       4.16      19.24        0.22     0.24   0.779
  TT14-288B_shed            24.71       0.00       1.43       7.08      16.49        2.95     3.47   0.667
  TT14-288C_shed            24.71       0.00       0.93      13.08      10.91        0.95     1.47   0.441
  TT14-291A_shed            24.71       0.00       1.23       9.88      13.83        6.79     8.42   0.560
  TT14-291B_shed            24.71       0.00       1.34       8.34      15.29        2.21     2.69   0.619
  TT14-291C_shed            24.71       0.00       2.06       1.86      20.99        0.33     0.33   0.849
  TT14-291D_shed            24.71       0.00       0.53      20.55       3.73        8.62    16.03   0.151
  TT14-294A_shed            24.71       0.00       1.21       9.70      14.06        0.71     0.92   0.569
  TT14-294B_shed            24.71       0.00       1.24       8.99      14.76        0.28     0.36   0.597
  TT14-294C_shed            24.71       0.00       1.06      11.83      12.03        4.61     6.25   0.487
  TT14-296A_shed            24.71       0.00       1.63       4.42      18.99        0.50     0.53   0.769
  TT14-296B_shed            24.71       0.00       1.20      14.19       9.46       47.96    56.04   0.383
  TT14-502_shed             24.71       0.00       0.78      16.38       7.68       23.46    32.06   0.311
  TT14-524_shed             24.71       0.00       1.42      12.72      10.75       24.85    29.42   0.435
  TT14-530_shed             24.71       0.00       1.57      10.77      12.55       30.60    34.90   0.508
  TT14-544_shed             24.71       0.00       1.44       7.57      15.94       13.45    15.46   0.645
  TT14-552A_shed            24.71       0.00       1.44       9.87      13.60       17.70    20.54   0.550
  TT14-552B_shed            24.71       0.00       1.24      11.64      11.97       34.26    39.06   0.485
  TT14-554_shed             24.71       0.00       1.30       9.13      14.52        4.95     5.96   0.587
  TT14-558_shed             24.71       0.00       1.42       9.31      14.12       46.63    50.93   0.571
  TT14-560_shed             24.71       0.00       1.30       9.38      14.25       11.26    13.29   0.577
  TT14-574_shed             24.71       0.00       1.09      15.92       7.83       31.92    39.74   0.317
  TT14-584_shed             24.71       0.00       1.23      11.16      12.46       48.71    55.35   0.504
  TT14-602A_shed            24.71       0.00       1.66       4.03      19.36        0.98     1.04   0.783
  TT14-602B_shed            24.71       0.00       0.90      13.69      10.32        1.79     2.69   0.418
  TT14-602C_shed            24.71       0.00       0.90      13.95      10.03        9.97    13.27   0.406
  TT14-602D_shed            24.71       0.00       1.13      10.77      13.04        1.36     1.83   0.528
  TT14-606A_shed            24.71       0.00       1.25       9.18      14.55        1.15     1.47   0.589
  TT14-606B_shed            24.71       0.00       1.30       8.82      14.86        2.15     2.66   0.601
  TT14-610A_shed            24.71       0.00       1.33       8.13      15.54        0.26     0.32   0.629
  TT14-610B_shed            24.71       0.00       1.40       7.03      16.57        0.38     0.45   0.671
  TT14-610C_shed            24.71       0.00       1.02      16.11       7.75       11.22    16.01   0.314
  TT14-610D_shed            24.71       0.00       1.01      12.30      11.62        1.14     1.64   0.470
  TT14-612A_shed            24.71       0.00       1.09      11.12      12.74        0.86     1.19   0.515
  TT14-612B_shed            24.71       0.00       1.20       9.54      14.23        0.30     0.39   0.576
  TT14-612C_shed            24.71       0.00       1.37       7.98      15.63        2.53     3.04   0.633
  TT14-614A_shed            24.71       0.00       0.98      12.49      11.46        0.73     1.09   0.464
  TT14-614B_shed            24.71       0.00       1.30       8.40      15.30        0.36     0.45   0.619
  TT14-614C_shed            24.71       0.00       1.44       6.94      16.61        1.94     2.27   0.672
  TT14-616A_shed            24.71       0.00       1.32       8.37      15.30        0.97     1.20   0.619
  TT14-616B_shed            24.71       0.00       1.33       8.30      15.36        1.67     2.04   0.621
  TT14-618A_shed            24.71       0.00       1.37       8.21      15.38        5.89     7.01   0.623
  TT14-620A_shed            24.71       0.00       1.29       8.76      14.93        1.40     1.76   0.604
  TT14-620B_shed            24.71       0.00       1.07      14.21       9.58       24.00    29.87   0.388
  TT14-622A_shed            24.71       0.00       1.29       8.85      14.84        1.69     2.12   0.601
  TT14-624A_shed            24.71       0.00       1.29       8.75      14.94        1.40     1.75   0.605
  TT14-630A_shed            24.71       0.00       1.06      11.72      12.15        2.55     3.51   0.492
  TT14-636A_shed            24.71       0.00       1.32       8.12      15.55        0.44     0.54   0.629
  TT14-636B_shed            24.71       0.00       1.09      11.33      12.52        1.95     2.66   0.507
  TT14-639A_shed            24.71       0.00       1.29       8.61      15.09        0.72     0.90   0.611
  TT14-639B_shed            24.71       0.00       0.91      13.42      10.57        2.82     4.25   0.428
  TT14-639C_shed            24.71       0.00       0.99      12.65      11.27        3.10     4.37   0.456
  TT14-640A_shed            24.71       0.00       0.88      13.72      10.30        0.97     1.53   0.417
  TT14-642A_shed            24.71       0.00       0.71      16.18       7.96        5.12     7.83   0.322
  TT14-642B_shed            24.71       0.00       1.15      10.21      13.61        0.79     1.07   0.551
  TT14-642C_shed            24.71       0.00       0.93      13.29      10.69        1.95     2.88   0.432
  TT14-644A_shed            24.71       0.00       0.75      15.42       8.71        0.81     1.39   0.352
  TT14-646A_shed            24.71       0.00       1.11      14.63       9.13       18.20    23.23   0.369
  TT14-648A_shed            24.71       0.00       0.88      15.87       8.11       10.56    14.80   0.328
  TT14-648B_shed            24.71       0.00       1.11      10.95      12.90        1.24     1.71   0.522
  TT14-658A_shed            24.71       0.00       0.92      13.67      10.30        6.15     8.52   0.417
  TT14-658B_shed            24.71       0.00       1.08      11.52      12.33        3.23     4.38   0.499
  TT14-660A_shed            24.71       0.00       0.92      13.30      10.69        0.97     1.49   0.433
  TT14-666A_shed            24.71       0.00       1.17      10.34      13.43        2.51     3.27   0.544
  TT14-668A_shed            24.71       0.00       0.78      15.09       9.02        0.96     1.61   0.365
  TT14-676A_shed            24.71       0.00       0.95      13.00      10.97        1.19     1.78   0.444
  TT14-684A_shed            24.71       0.00       0.90      13.51      10.49        0.91     1.41   0.425
  TT14-684B_shed            24.71       0.00       1.15      10.20      13.62        0.44     0.59   0.551
  TT14-688A_shed            24.71       0.00       1.03      11.87      12.05        0.53     0.77   0.488
  TT14-688B_shed            24.71       0.00       1.33       7.88      15.78        0.33     0.40   0.639
  TT14-688C_shed            24.71       0.00       1.25       9.34      14.39        1.28     1.63   0.582
  TT14-690A_shed            24.71       0.00       1.06      11.82      12.04        1.65     2.21   0.487
  TT14-690B_shed            24.71       0.00       0.94      12.86      11.13        0.32     0.50   0.450
  TT14-692A_shed            24.71       0.00       0.96      12.99      10.97        1.73     2.49   0.444
  TT14-702_shed             24.71       0.00       1.43      10.07      13.42       16.01    18.79   0.543
  TT14-706_shed             24.71       0.00       1.18      13.10      10.60       17.33    21.27   0.429
  TT14-708_shed             24.71       0.00       1.01      14.06       9.79       21.84    27.11   0.396
  TT14-720_shed             24.71       0.00       1.26      11.57      12.03       43.21    49.83   0.487
  TT14-736_shed             24.71       0.00       1.17      13.34      10.36       23.40    28.29   0.419
  TT14-740_shed             24.71       0.00       1.08      14.63       9.16       12.49    16.12   0.371
  TT14-746_shed             24.71       0.00       0.84      16.28       7.74       10.81    14.63   0.313
  

  ***********************
  LID Performance Summary
  ***********************

  --------------------------------------------------------------------------------------------------------------------
                                         Total      Evap     Infil   Surface    Drain    Initial     Final  Continuity
                                        Inflow      Loss      Loss   Outflow   Outflow   Storage   Storage       Error
  Subcatchment      LID Control             in        in        in        in        in        in        in           %
  --------------------------------------------------------------------------------------------------------------------
  T14-A1_shed       MorrisTT            293.56      0.50    290.92      1.82      0.00      0.00      0.00        0.11
  T14-A1_shed       RainBarrel         1658.49      0.00      0.00    106.77   1545.72      0.00      6.00        0.00
  T14-A2_shed       MorrisTT            293.65      0.50    291.00      1.82      0.00      0.00      0.00        0.11
  T14-A2_shed       RainBarrel         1656.68      0.00      0.00    106.21   1544.47      0.00      6.00        0.00
  T14-A3_shed       MorrisTT            294.27      0.50    291.60      1.85      0.00      0.00      0.00        0.11
  T14-A3_shed       RainBarrel         1665.83      0.00      0.00    108.82   1551.02      0.00      6.00        0.00
  T14-A4_shed       MorrisTT            291.19      0.55    288.64      1.70      0.00      0.00      0.00        0.10
  T14-A4_shed       RainBarrel         1628.60      0.00      0.00     98.94   1523.66      0.00      6.00        0.00
  T14-B_shed        MorrisTT            290.24      0.69    287.71      1.57      0.00      0.00      0.00        0.10
  T14-B_shed        RainBarrel         1632.34      0.00      0.00    103.20   1523.14      0.00      6.00       -0.00
  T14-C1_shed       MorrisTT            290.44      0.55    287.94      1.67      0.00      0.00      0.00        0.10
  T14-C1_shed       RainBarrel         1626.52      0.00      0.00     98.50   1522.02      0.00      6.00        0.00
  T14-C2_shed       MorrisTT            293.36      0.51    290.73      1.81      0.00      0.00      0.00        0.11
  T14-C2_shed       RainBarrel         1653.09      0.00      0.00    105.33   1541.76      0.00      6.00        0.00
  T14-D_shed        MorrisTT            293.29      0.50    290.66      1.81      0.00      0.00      0.00        0.11
  T14-D_shed        RainBarrel         1650.64      0.00      0.00    104.33   1540.31      0.00      6.00       -0.00
  T14-E_shed        MorrisTT            291.15      0.58    288.60      1.68      0.00      0.00      0.00        0.10
  T14-E_shed        RainBarrel         1634.13      0.00      0.00    101.38   1526.75      0.00      6.00        0.00
  T14-G_shed        RainBarrel         1667.98      0.00      0.00    109.57   1552.41      0.00      6.00       -0.00
  T14-J_shed        MorrisTT            288.58      0.58    286.15      1.58      0.00      0.00      0.00        0.10
  T14-J_shed        RainBarrel         1595.69      0.00      0.00     89.58   1500.11      0.00      6.00       -0.00
  T14-K3_shed       MorrisTT            292.49      0.60    289.86      1.73      0.00      0.00      0.00        0.10
  T14-K3_shed       RainBarrel         1655.63      0.00      0.00    108.32   1541.30      0.00      6.00        0.00
  T14-M1_shed       RainBarrel         1663.24      0.00      0.00    108.41   1548.83      0.00      6.00       -0.00
  T14-M2_shed       MorrisTT            294.11      0.47    291.47      1.85      0.00      0.00      0.00        0.11
  T14-M2_shed       RainBarrel         1664.90      0.00      0.00    107.97   1550.93      0.00      6.00       -0.00
  T14-P1_shed       RainBarrel         1680.04      0.00      0.00    110.90   1563.14      0.00      6.00       -0.00
  T14-P3_shed       RainBarrel         1672.25      0.00      0.00    109.97   1556.28      0.00      6.00       -0.00
  T14-P4_shed       MorrisTT            294.17      0.43    291.56      1.86      0.00      0.00      0.00        0.11
  T14-P4_shed       RainBarrel         1642.07      0.00      0.00     99.62   1536.45      0.00      6.00       -0.00
  T14-R1_shed       MorrisTT            292.38      0.48    289.81      1.77      0.00      0.00      0.00        0.11
  T14-R1_shed       RainBarrel         1637.74      0.00      0.00    100.08   1531.66      0.00      6.00        0.00
  T14-R2_shed       RainBarrel         1671.78      0.00      0.00    109.84   1555.95      0.00      6.00        0.00
  T14-R5_shed       MorrisTT            294.89      0.48    292.20      1.88      0.00      0.00      0.00        0.11
  T14-R5_shed       RainBarrel         1668.09      0.00      0.00    108.96   1553.13      0.00      6.00       -0.00
  T14-R6_shed       MorrisTT            292.83      0.48    290.16      1.86      0.00      0.00      0.00        0.11
  T14-R6_shed       RainBarrel         1629.30      0.00      0.00     97.49   1525.81      0.00      6.00       -0.00
  T14-R7_shed       RainBarrel         1672.00      0.00      0.00    109.84   1556.16      0.00      6.00       -0.00
  TT14-262A_shed    MorrisTT            294.38      0.49    291.71      1.86      0.00      0.00      0.00        0.11
  TT14-262A_shed    RainBarrel         1663.05      0.00      0.00    107.70   1549.35      0.00      6.00        0.00
  TT14-291D_shed    MorrisTT            295.47      0.38    292.85      1.90      0.00      0.00      0.00        0.11
  TT14-291D_shed    RainBarrel         1642.01      0.00      0.00     98.22   1537.79      0.00      6.00       -0.00
  TT14-296B_shed    MorrisTT            292.08      0.54    289.49      1.74      0.00      0.00      0.00        0.10
  TT14-296B_shed    RainBarrel         1637.70      0.00      0.00    101.58   1530.12      0.00      6.00       -0.00
  TT14-502_shed     RainBarrel         1678.04      0.00      0.00    110.24   1561.81      0.00      6.00       -0.00
  TT14-524_shed     MorrisTT            290.97      0.51    288.46      1.71      0.00      0.00      0.00        0.10
  TT14-524_shed     RainBarrel         1617.21      0.00      0.00     94.40   1516.80      0.00      6.00        0.00
  TT14-530_shed     MorrisTT            291.28      0.51    288.74      1.72      0.00      0.00      0.00        0.10
  TT14-530_shed     RainBarrel         1625.63      0.00      0.00     97.17   1522.46      0.00      6.00        0.00
  TT14-552A_shed    MorrisTT            294.26      0.48    291.59      1.86      0.00      0.00      0.00        0.11
  TT14-552A_shed    RainBarrel         1661.56      0.00      0.00    107.00   1548.57      0.00      6.00       -0.00
  TT14-552B_shed    MorrisTT            293.85      0.53    291.18      1.82      0.00      0.00      0.00        0.11
  TT14-552B_shed    RainBarrel         1662.38      0.00      0.00    108.70   1547.68      0.00      6.00        0.00
  TT14-558_shed     MorrisTT            292.75      0.58    290.11      1.75      0.00      0.00      0.00        0.11
  TT14-558_shed     RainBarrel         1655.30      0.00      0.00    107.72   1541.58      0.00      6.00        0.00
  TT14-574_shed     MorrisTT            292.58      0.51    289.99      1.78      0.00      0.00      0.00        0.11
  TT14-574_shed     RainBarrel         1638.58      0.00      0.00    100.91   1531.66      0.00      6.00        0.00
  TT14-584_shed     RainBarrel         1665.90      0.00      0.00    109.63   1550.27      0.00      6.00       -0.00
  TT14-610C_shed    MorrisTT            294.34      0.42    291.73      1.86      0.00      0.00      0.00        0.11
  TT14-610C_shed    RainBarrel         1647.71      0.00      0.00    101.04   1540.68      0.00      6.00       -0.00
  TT14-620B_shed    MorrisTT            293.77      0.47    291.14      1.84      0.00      0.00      0.00        0.11
  TT14-620B_shed    RainBarrel         1647.26      0.00      0.00    102.41   1538.85      0.00      6.00       -0.00
  TT14-646A_shed    MorrisTT            293.46      0.46    290.86      1.82      0.00      0.00      0.00        0.11
  TT14-646A_shed    RainBarrel         1642.16      0.00      0.00    100.65   1535.51      0.00      6.00        0.00
  TT14-648A_shed    RainBarrel         1678.38      0.00      0.00    110.08   1562.31      0.00      6.00       -0.00
  TT14-702_shed     MorrisTT            293.49      0.46    290.89      1.83      0.00      0.00      0.00        0.11
  TT14-702_shed     RainBarrel         1645.76      0.00      0.00    101.66   1538.10      0.00      6.00        0.00
  TT14-706_shed     MorrisTT            293.74      0.47    291.11      1.84      0.00      0.00      0.00        0.11
  TT14-706_shed     RainBarrel         1648.20      0.00      0.00    102.67   1539.52      0.00      6.00       -0.00
  TT14-708_shed     MorrisTT            294.78      0.46    292.11      1.88      0.00      0.00      0.00        0.11
  TT14-708_shed     RainBarrel         1663.49      0.00      0.00    107.13   1550.36      0.00      6.00        0.00
  TT14-720_shed     MorrisTT            293.80      0.52    291.14      1.83      0.00      0.00      0.00        0.11
  TT14-720_shed     RainBarrel         1659.56      0.00      0.00    107.43   1546.12      0.00      6.00       -0.00
  TT14-736_shed     MorrisTT            294.07      0.49    291.41      1.85      0.00      0.00      0.00        0.11
  TT14-736_shed     RainBarrel         1660.20      0.00      0.00    106.89   1547.32      0.00      6.00        0.00
  TT14-740_shed     MorrisTT            294.65      0.45    291.99      1.88      0.00      0.00      0.00        0.11
  TT14-740_shed     RainBarrel         1662.67      0.00      0.00    106.61   1550.06      0.00      6.00       -0.00
  TT14-746_shed     MorrisTT            294.90      0.43    292.25      1.89      0.00      0.00      0.00        0.11
  TT14-746_shed     RainBarrel         1653.71      0.00      0.00    103.17   1544.54      0.00      6.00       -0.00
  
  ******************
  Node Depth Summary
  ******************
  
  ---------------------------------------------------------------------------------
                                 Average  Maximum  Maximum  Time of Max    Reported
                                   Depth    Depth      HGL   Occurrence   Max Depth
  Node                 Type         Feet     Feet     Feet  days hr:min        Feet
  ---------------------------------------------------------------------------------
  TT14-006             JUNCTION     0.06     4.79    32.30   102  01:05        0.00
  TT14-044             JUNCTION     0.14     7.54    49.91   102  01:05        0.00
  TT14-030             JUNCTION     0.06     5.01    41.53   102  01:05        0.00
  TT14-904             JUNCTION     0.04     2.29    45.87   102  01:00        0.00
  TT14-048             JUNCTION     0.06     4.84    49.36   102  01:05        0.00
  TT14-058             JUNCTION     0.11     5.98    55.55   102  01:03        0.00
  TT14-068             JUNCTION     0.08     4.63    58.07   102  01:04        0.00
  TT14-106             JUNCTION     0.04     2.59    56.42   102  01:06        0.00
  TT14-076             JUNCTION     0.11     6.66    64.23   102  01:03        0.00
  TT14-092             JUNCTION     0.09     5.56    73.72   102  01:03        0.00
  TT14-112             JUNCTION     0.03     2.29    70.37   102  01:04        0.00
  TT14-202             JUNCTION     0.02     2.06    74.49   102  01:05        0.00
  TT14-406             JUNCTION     0.01     1.07    78.90   102  01:00        0.00
  TT14-418             JUNCTION     0.01     1.22    87.94   102  01:00        0.00
  TT14-306             JUNCTION     9.87    12.23    81.43   102  00:17        0.00
  TT14-312             JUNCTION     0.02     0.93    90.78   102  01:00        0.00
  TT14-222             JUNCTION     0.04     4.29    86.99   102  01:05        0.00
  TT14-228             JUNCTION     0.04     3.81    91.81   102  01:04        0.00
  TT14-502             JUNCTION     3.43     4.44    97.05   102  01:03        0.00
  TT14-524             JUNCTION     0.07     4.52   129.15   102  01:02        0.00
  TT14-240             JUNCTION     0.02     1.66   121.30   102  01:03        0.00
  TT14-243             JUNCTION     0.02     1.61   130.16   102  01:03        0.00
  TT14-248             JUNCTION     0.02     1.47   142.98   102  01:03        0.00
  TT14-546             JUNCTION     0.06     3.36   162.84   102  01:01        0.00
  TT14-530             JUNCTION     0.06     3.84   138.56   102  01:01        0.00
  TT14-262             JUNCTION     0.14     7.78   168.78   102  01:02        0.00
  TT14-814             JUNCTION     0.02     1.42   174.30   102  01:02        0.00
  TT14-263             JUNCTION     0.05     3.46   172.64   102  01:02        0.00
  TT14-828             JUNCTION     0.01     1.35   200.78   102  01:01        0.00
  TT14-834             JUNCTION     0.01     0.96   218.88   102  01:00        0.00
  TT14-264             JUNCTION     0.05     3.62   183.78   102  01:02        0.00
  TT14-268             JUNCTION     0.05     3.39   194.93   102  01:02        0.00
  TT14-554             JUNCTION     0.06     3.53   175.23   102  01:00        0.00
  TT14-560             JUNCTION     0.05     3.21   188.81   102  01:01        0.00
  TT14-574             JUNCTION     0.05     3.05   201.68   102  01:01        0.00
  TT14-582             JUNCTION     0.05     3.27   207.79   102  01:01        0.00
  TT14-275             JUNCTION     0.05     3.45   203.84   102  01:01        0.00
  TT14-280             JUNCTION     0.05     3.38   211.86   102  01:01        0.00
  TT14-286             JUNCTION     0.05     3.27   217.56   102  01:01        0.00
  TT14-291             JUNCTION     0.05     3.19   225.59   102  01:01        0.00
  TT14-296             JUNCTION     0.05     3.39   231.87   102  01:00        0.00
  TT14-606             JUNCTION     0.02     1.72   234.63   102  01:02        0.00
  TT14-746             JUNCTION     0.01     0.89   319.93   102  01:00        0.00
  TT14-738             JUNCTION     0.01     0.93   304.64   102  01:00        0.00
  TT14-716             JUNCTION     0.01     1.40   270.21   102  01:00        0.00
  TT14-708             JUNCTION     0.02     1.51   262.01   102  01:00        0.00
  TT14-702             JUNCTION     0.03     2.11   251.01   102  01:01        0.00
  TT14-612             JUNCTION     0.04     2.52   245.05   102  01:00        0.00
  TT14-616             JUNCTION     0.03     2.20   248.12   102  01:00        0.00
  TT14-622             JUNCTION     0.03     2.08   253.42   102  01:00        0.00
  TT14-636             JUNCTION     0.01     1.19   262.03   102  01:01        0.00
  TT14-639             JUNCTION     0.03     2.45   266.14   102  01:00        0.00
  TT14-642             JUNCTION     0.03     1.89   270.31   102  01:00        0.00
  TT14-646             JUNCTION     0.02     1.72   276.15   102  01:00        0.00
  TT14-660             JUNCTION     0.01     0.99   307.22   102  01:00        0.00
  TT14-666             JUNCTION     0.01     0.98   311.98   102  01:00        0.00
  TT14-676             JUNCTION     0.01     0.94   316.94   102  01:01        0.00
  TT14-688             JUNCTION     0.01     0.91   321.91   102  01:00        0.00
  TT14-692             JUNCTION     0.01     0.51   326.51   102  01:00        0.00
  TT14-848             JUNCTION     0.02     0.95   245.14   102  01:00        0.00
  TT14-016             JUNCTION     0.07     5.63    34.59   102  01:05        0.00
  T14_1_1090           JUNCTION     0.10     7.00    43.94   102  01:06        0.00
  T14_1_1160           JUNCTION     0.13     6.44    44.17   102  00:41        0.00
[...]
  TT14-828             JUNCTION     26.23    94.41   102  01:00        23.5        80.2       0.000
  TT14-834             JUNCTION     45.94    69.00   102  01:00        37.9        56.7      -0.013
  TT14-264             JUNCTION     34.47   366.90   102  01:01        28.6         303      -0.021
  TT14-268             JUNCTION      6.38   337.09   102  01:01        5.13         274       0.027
  TT14-554             JUNCTION     65.56   381.04   102  01:00        56.9         340      -0.019
  TT14-560             JUNCTION     64.22   318.51   102  01:00        57.9         283       0.002
  TT14-574             JUNCTION     39.74   257.23   102  01:00        31.9         226       0.006
  TT14-582             JUNCTION     55.35   222.02   102  01:00        48.7         194       0.005
  TT14-275             JUNCTION     21.21   331.28   102  01:01        15.6         269      -0.022
  TT14-280             JUNCTION     29.97   312.18   102  01:01        25.3         253      -0.005
  TT14-286             JUNCTION     10.39   284.99   102  01:01        8.56         228       0.012
  TT14-291             JUNCTION     27.24   276.04   102  01:00        17.9         220      -0.006
  TT14-296             JUNCTION     82.94   250.89   102  01:00        68.2         202      -0.006
  TT14-606             JUNCTION      4.13   172.06   102  01:01        3.29         133       0.002
  TT14-746             JUNCTION     14.63    14.63   102  01:00        10.8        10.8      -0.029
  TT14-738             JUNCTION     44.41    58.75   102  01:00        35.9        46.7      -0.031
  TT14-716             JUNCTION     49.83   105.06   102  01:00        43.2        89.9      -0.006
  TT14-708             JUNCTION     48.38   152.14   102  01:00        39.2         129      -0.004
  TT14-702             JUNCTION     18.79   169.54   102  01:00          16         145      -0.008
  TT14-612             JUNCTION     23.03   168.30   102  01:00        16.7         130      -0.014
  TT14-616             JUNCTION      7.05   146.24   102  01:00        5.67         113       0.006
  TT14-622             JUNCTION     46.02   139.42   102  01:00        36.9         108      -0.008
  TT14-636             JUNCTION      3.19    95.40   102  01:00        2.39        70.9       0.016
  TT14-639             JUNCTION      9.52    92.65   102  01:00        6.63        68.5      -0.019
  TT14-642             JUNCTION     14.70    83.69   102  01:00        9.65        61.8      -0.001
  TT14-646             JUNCTION     39.75    69.70   102  01:00          30        52.2      -0.000
  TT14-660             JUNCTION     14.39    30.29   102  01:00        10.4        22.2      -0.031
  TT14-666             JUNCTION      4.88    16.14   102  01:00        3.46        11.8       0.029
  TT14-676             JUNCTION      1.78    11.57   102  01:00        1.19         8.4       0.151
  TT14-688             JUNCTION      4.80     9.98   102  01:00        3.49         7.2      -0.147
  TT14-692             JUNCTION      5.21     5.21   102  01:00        3.71        3.71      -0.051
  TT14-848             JUNCTION     23.37    23.37   102  01:00        18.8        18.8      -0.021
  TT14-016             JUNCTION     37.23  1672.74   102  01:04        29.8    1.65e+03       0.005
  T14_1_1090           JUNCTION      0.00  1524.99   102  01:06           0    1.47e+03       0.012
  T14_1_1160           JUNCTION      0.00  1525.44   102  01:05           0    1.47e+03      -0.007
  T14_1_1440_west_split JUNCTION      0.00   497.41   102  01:06           0         556       0.002
  T14_1_2390_east      JUNCTION      0.00   872.32   102  01:02           0         719      -0.002
  T14_1_2410           JUNCTION      0.00  1297.49   102  01:02           0     1.2e+03       0.013
  T14_1_1520_west      JUNCTION      0.00   475.50   102  01:03           0         528      -0.002
  T14_2_230            JUNCTION      0.00   451.88   102  01:02           0         409       0.015
  T14_2_2040           JUNCTION      0.00    57.14   102  01:02           0        46.7       0.015
  T14_2_2070           JUNCTION      0.00    57.34   102  01:01           0        46.7      -0.018
  T14_2_2120           JUNCTION      0.00    57.93   102  01:00           0        46.7       0.013
  T14_2_2530           JUNCTION      0.00    14.54   102  01:00           0        10.8       0.001
  T14_3_640            JUNCTION      0.00   546.40   102  01:02           0         466      -0.006
  T14_3_3_10           JUNCTION      0.00   112.04   102  01:02           0        98.7      -0.001
  T14_3_1340           JUNCTION      0.00   168.59   102  01:00           0         130       0.007
  outfall              OUTFALL       0.00  1694.09   102  01:05           0    1.67e+03       0.000
  
  
  **********************
  Node Surcharge Summary
  **********************
  
  No nodes were surcharged.
  
  
  *********************
  Node Flooding Summary
  *********************
  
  No nodes were flooded.
  
  
  ***********************
  Outfall Loading Summary
  ***********************
  
  -----------------------------------------------------------
                         Flow       Avg       Max       Total
                         Freq      Flow      Flow      Volume
  Outfall Node           Pcnt       CFS       CFS    10^6 gal
  -----------------------------------------------------------
  outfall               59.28     13.38   1694.09    1674.908
  -----------------------------------------------------------
  System                59.28     13.38   1694.09    1674.908
  
  
  ********************
  Link Flow Summary
  ********************
  
  -----------------------------------------------------------------------------
                                 Maximum  Time of Max   Maximum    Max/    Max/
                                  |Flow|   Occurrence   |Veloc|    Full    Full
  Link                 Type          CFS  days hr:min    ft/sec    Flow   Depth
  -----------------------------------------------------------------------------
  C1                   CONDUIT   1670.94   102  01:06     13.36    0.23    0.25
  C2                   CONDUIT   1645.41   102  01:05     12.88    0.20    0.25
  C3                   CONDUIT    127.57   102  01:00     11.56    0.23    0.52
  C4                   CONDUIT   1525.25   102  01:07     11.56    0.39    0.32
  C5                   CONDUIT   1524.99   102  01:06     17.35    0.23    0.35
  C6                   CONDUIT   1525.44   102  01:05     16.44    0.29    0.36
  C7                   CONDUIT   1497.27   102  01:05     11.52    0.17    0.34
  C8                   CONDUIT    496.26   102  01:08      8.29    0.07    0.24
  C9                   CONDUIT    497.41   102  01:06      9.77    0.17    0.20
  C10                  CONDUIT    482.81   102  01:05     11.64    0.07    0.15
  C11                  CONDUIT    935.89   102  01:03     14.76    0.30    0.35
  C12                  CONDUIT    871.96   102  01:03     13.51    0.33    0.44
  C13                  CONDUIT    979.81   102  01:04     15.49    0.22    0.31
  C14                  CONDUIT    953.31   102  01:04     15.55    0.15    0.30
  C15                  CONDUIT    872.77   102  01:02     10.80    0.38    0.41
  C16                  CONDUIT    192.24   102  01:00     17.41    0.15    0.40
  C17                  CONDUIT    822.03   102  01:02     13.85    0.84    0.86
  C18                  CONDUIT    475.50   102  01:03     13.77    0.51    0.63
  C19                  CONDUIT    476.09   102  01:03     10.87    0.10    0.20
  C20                  CONDUIT   1136.59   102  01:05     21.02    0.06    0.21
  C21                  CONDUIT    130.04   102  01:00      5.08    0.03    0.56
  C22                  CONDUIT     51.36   102  01:00      5.97    0.10    0.59
  C23                  CONDUIT     47.79   102  01:00      8.34    0.12    0.19
  C24                  CONDUIT   1119.78   102  01:05     17.63    0.13    0.21
  C25                  CONDUIT   1101.39   102  01:04     16.01    0.16    0.27
  C26                  CONDUIT    477.15   102  01:03     11.20    0.02    0.20
  C27                  CONDUIT    450.66   102  01:03      9.72    0.13    0.35
  C28                  CONDUIT    451.88   102  01:02     19.58    0.26    0.33
  C29                  CONDUIT    425.35   102  01:02     14.16    0.34    0.44
  C30                  CONDUIT    394.01   102  01:01     16.58    0.30    0.40
  C31                  CONDUIT    380.33   102  01:01     17.64    0.35    0.41
  C32                  CONDUIT    317.16   102  01:01     15.16    0.30    0.40
  C33                  CONDUIT    256.27   102  01:01     13.50    0.28    0.37
  C34                  CONDUIT    219.32   102  01:01     11.40    0.30    0.37
  C35                  CONDUIT    168.18   102  01:01     10.90    0.14    0.32
  C36                  CONDUIT    151.20   102  01:00     11.16    0.11    0.23
  C37                  CONDUIT    104.18   102  01:00      9.57    0.09    0.18
  C38                  CONDUIT     57.02   102  01:03      6.47    0.06    0.16
  C39                  CONDUIT     57.14   102  01:02      8.68    0.15    0.28
  C40                  CONDUIT     57.34   102  01:01      5.68    0.08    0.28
  C41                  CONDUIT     57.93   102  01:00     10.24    0.06    0.13
  C42                  CONDUIT     14.46   102  01:00      4.27    0.03    0.11
  C43                  CONDUIT     14.54   102  01:00      9.46    0.05    0.13
  C44                  CONDUIT    604.57   102  01:03     10.06    0.05    0.21
  C45                  CONDUIT    593.99   102  01:03     16.89    0.05    0.13
  C46                  CONDUIT    563.45   102  01:03     17.03    0.04    0.12
  C47                  CONDUIT    546.20   102  01:03     17.50    0.04    0.11
  C48                  CONDUIT    546.40   102  01:02     13.65    0.77    0.38
  C49                  CONDUIT    111.71   102  01:03      7.37    0.46    0.42
  C50                  CONDUIT    112.04   102  01:02      6.20    0.11    0.32
  C51                  CONDUIT     92.02   102  01:01      8.87    0.12    0.21
  C52                  CONDUIT     68.37   102  01:00      9.86    0.08    0.19
  C53                  CONDUIT     23.12   102  01:00      8.84    0.08    0.19
  C54                  CONDUIT    371.34   102  01:02      8.89    0.31    0.62
  C55                  CONDUIT    366.80   102  01:02     16.40    0.37    0.42
  C56                  CONDUIT    336.56   102  01:02     15.25    0.33    0.41
  C57                  CONDUIT    331.42   102  01:01     15.53    0.34    0.40
  C58                  CONDUIT    311.84   102  01:01     14.92    0.35    0.41
  C59                  CONDUIT    284.56   102  01:01     14.12    0.33    0.40
  C60                  CONDUIT    275.31   102  01:01     14.20    0.32    0.39
  C61                  CONDUIT    249.84   102  01:00     12.57    0.34    0.40
  C62                  CONDUIT    171.69   102  01:02      7.52    0.09    0.25
  C63                  CONDUIT    168.34   102  01:01     11.25    0.10    0.16
  C64                  CONDUIT    168.59   102  01:00     14.96    0.19    0.30
  C65                  CONDUIT    145.91   102  01:00     12.26    0.19    0.31
  C66                  CONDUIT    139.27   102  01:00     13.38    0.17    0.29
  C67                  CONDUIT     95.02   102  01:01     11.43    0.05    0.11
  C68                  CONDUIT     92.40   102  01:01     11.63    0.15    0.26
  C69                  CONDUIT     83.41   102  01:00      9.05    0.21    0.36
  C70                  CONDUIT     69.19   102  01:00      9.67    0.18    0.30
  C71                  CONDUIT     30.09   102  01:00      8.02    0.13    0.34
  C72                  CONDUIT     16.02   102  01:00      7.27    0.17    0.28
  C73                  CONDUIT     11.39   102  01:01      5.32    0.16    0.27
  C74                  CONDUIT      9.83   102  01:00      4.83    0.15    0.26
  C75                  CONDUIT      5.19   102  01:00      4.05    0.06    0.24
  outflow              CONDUIT   1694.09   102  01:05     14.73    0.19    0.23
  
  
  ***************************
  Flow Classification Summary
  ***************************
  
  -------------------------------------------------------------------------------------
                      Adjusted    ---------- Fraction of Time in Flow Class ---------- 
                       /Actual         Up    Down  Sub   Sup   Up    Down  Norm  Inlet 
  Conduit               Length    Dry  Dry   Dry   Crit  Crit  Crit  Crit  Ltd   Ctrl  
  -------------------------------------------------------------------------------------
  C1                      1.00   0.13  0.02  0.00  0.85  0.00  0.00  0.00  0.92  0.00
  C2                      1.00   0.14  0.04  0.00  0.82  0.00  0.00  0.00  0.96  0.00
  C3                      1.00   0.18  0.67  0.00  0.10  0.05  0.00  0.00  0.96  0.00
  C4                      1.00   0.18  0.03  0.00  0.79  0.00  0.00  0.00  0.40  0.00
  C5                      2.75   0.21  0.12  0.00  0.52  0.15  0.00  0.00  0.42  0.00
  C6                      1.00   0.25  0.07  0.00  0.61  0.06  0.00  0.00  0.23  0.00
  C7                      1.11   0.22  0.01  0.00  0.76  0.00  0.00  0.00  0.49  0.00
  C8                      1.37   0.23  0.05  0.00  0.73  0.00  0.00  0.00  0.94  0.00
  C9                      1.00   0.21  0.00  0.00  0.78  0.01  0.00  0.00  0.31  0.00
  C10                     1.00   0.21  0.21  0.00  0.53  0.05  0.00  0.00  0.97  0.00
  C11                     1.00   0.43  0.04  0.00  0.45  0.08  0.00  0.00  0.14  0.00
  C12                     1.00   0.43  0.04  0.00  0.50  0.03  0.00  0.00  0.81  0.00
  C13                     1.00   0.24  0.24  0.00  0.39  0.13  0.00  0.00  0.48  0.00
  C14                     1.00   0.42  0.06  0.00  0.46  0.06  0.00  0.00  0.47  0.00
  C15                     1.43   0.37  0.00  0.00  0.63  0.00  0.00  0.00  0.28  0.00
  C16                     1.71   0.41  0.40  0.00  0.07  0.12  0.00  0.00  0.92  0.00
  C17                     4.47   0.37  0.04  0.00  0.58  0.00  0.00  0.00  0.99  0.00
  C18                     6.10   0.41  0.00  0.00  0.42  0.16  0.00  0.00  0.33  0.00
  C19                     6.25   0.42  0.01  0.00  0.51  0.06  0.00  0.00  0.31  0.00
  C20                    10.52   0.41  0.04  0.00  0.31  0.25  0.00  0.00  0.97  0.00
  C21                    11.86   0.00  0.86  0.00  0.14  0.00  0.00  0.00  1.00  0.00
  C22                     1.00   0.37  0.38  0.00  0.24  0.01  0.00  0.00  0.99  0.00
  C23                     1.00   0.75  0.04  0.00  0.14  0.07  0.00  0.00  0.93  0.00
  C24                     1.00   0.38  0.00  0.00  0.48  0.14  0.00  0.00  0.00  0.00
  C25                     1.00   0.38  0.01  0.00  0.53  0.08  0.00  0.00  0.89  0.00
  C26                    14.87   0.39  0.30  0.00  0.25  0.06  0.00  0.00  0.97  0.00
  C27                     1.00   0.00  0.67  0.00  0.33  0.00  0.00  0.00  1.00  0.00
  C28                     1.00   0.67  0.05  0.00  0.12  0.16  0.00  0.00  0.42  0.00
  C29                     1.00   0.71  0.00  0.00  0.18  0.10  0.00  0.00  0.67  0.00
  C30                     1.00   0.71  0.00  0.00  0.17  0.12  0.00  0.00  0.97  0.00
  C31                     1.00   0.71  0.00  0.00  0.16  0.13  0.00  0.00  0.04  0.00
  C32                     1.00   0.71  0.00  0.00  0.17  0.12  0.00  0.00  1.00  0.00
  C33                     1.00   0.71  0.00  0.00  0.19  0.10  0.00  0.00  0.13  0.00
  C34                     1.00   0.71  0.00  0.00  0.22  0.07  0.00  0.00  0.63  0.00
  C35                     1.00   0.29  0.00  0.00  0.64  0.07  0.00  0.00  1.00  0.00
  C36                     1.00   0.29  0.39  0.00  0.31  0.01  0.00  0.00  0.92  0.00
  C37                     1.00   0.68  0.02  0.00  0.24  0.06  0.00  0.00  0.97  0.00
  C38                     1.00   0.70  0.03  0.00  0.28  0.00  0.00  0.00  0.99  0.00
  C39                    13.45   0.00  0.00  0.00  0.88  0.12  0.00  0.00  0.04  0.00
  C40                     2.16   0.00  0.71  0.00  0.28  0.00  0.00  0.00  0.98  0.00
  C41                     1.00   0.71  0.06  0.00  0.14  0.08  0.00  0.00  0.97  0.00
  C42                     1.00   0.77  0.09  0.00  0.13  0.00  0.00  0.00  1.00  0.00
  C43                     1.00   0.87  0.03  0.00  0.01  0.09  0.00  0.00  0.90  0.00
  C44                     1.00   0.39  0.09  0.00  0.51  0.01  0.00  0.00  0.97  0.00
  C45                     1.57   0.48  0.04  0.00  0.34  0.14  0.00  0.00  0.92  0.00
  C46                     1.41   0.51  0.04  0.00  0.31  0.15  0.00  0.00  0.93  0.00
  C47                     1.00   0.53  0.02  0.00  0.30  0.15  0.00  0.00  0.76  0.00
  C48                     1.00   0.50  0.00  0.00  0.42  0.08  0.00  0.00  0.00  0.00
  C49                     2.47   0.00  0.00  0.00  0.00  0.00  0.00  1.00  0.00  0.00
  C50                     1.00   0.00  0.56  0.00  0.44  0.00  0.00  0.00  0.99  0.00
  C51                     1.00   0.56  0.05  0.00  0.34  0.05  0.00  0.00  0.97  0.00
  C52                     1.00   0.61  0.23  0.00  0.10  0.06  0.00  0.00  0.98  0.00
  C53                     1.00   0.84  0.05  0.00  0.01  0.10  0.00  0.00  0.90  0.00
  C54                     1.00   0.50  0.27  0.00  0.23  0.00  0.00  0.00  1.00  0.00
  C55                     1.00   0.77  0.00  0.00  0.12  0.11  0.00  0.00  0.67  0.00
  C56                     1.00   0.77  0.00  0.00  0.13  0.10  0.00  0.00  0.55  0.00
  C57                     1.00   0.67  0.00  0.00  0.23  0.10  0.00  0.00  0.21  0.00
  C58                     1.00   0.67  0.10  0.00  0.13  0.10  0.00  0.00  0.33  0.00
  C59                     1.00   0.64  0.00  0.00  0.26  0.09  0.00  0.00  0.33  0.00
  C60                     1.00   0.64  0.13  0.00  0.14  0.09  0.00  0.00  0.22  0.00
  C61                     1.00   0.00  0.00  0.00  0.92  0.08  0.00  0.00  0.19  0.00
  C62                     1.00   0.00  0.78  0.00  0.22  0.00  0.00  0.00  1.00  0.00
  C63                     1.00   0.78  0.02  0.00  0.13  0.07  0.00  0.00  0.92  0.00
  C64                     1.81   0.57  0.03  0.00  0.30  0.11  0.00  0.00  0.30  0.00
  C65                     1.99   0.59  0.24  0.00  0.09  0.08  0.00  0.00  0.69  0.00
  C66                     1.47   0.65  0.01  0.00  0.25  0.09  0.00  0.00  0.16  0.00
  C67                     1.00   0.80  0.00  0.00  0.00  0.00  0.00  0.20  0.00  0.00
  C68                     1.98   0.80  0.09  0.00  0.01  0.10  0.00  0.00  0.89  0.00
  C69                     1.00   0.76  0.00  0.00  0.16  0.07  0.00  0.00  0.30  0.00
  C70                     1.00   0.48  0.07  0.00  0.37  0.07  0.00  0.00  0.44  0.00
  C71                     1.00   0.52  0.35  0.00  0.07  0.06  0.00  0.00  0.99  0.00
  C72                     1.00   0.28  0.00  0.00  0.65  0.07  0.00  0.00  0.74  0.00
  C73                     1.00   0.02  0.37  0.00  0.59  0.01  0.00  0.00  0.89  0.00
  C74                     1.00   0.39  0.22  0.00  0.39  0.00  0.00  0.00  0.96  0.00
  C75                     1.27   0.47  0.00  0.00  0.53  0.00  0.00  0.00  0.78  0.00
  outflow                 1.00   0.13  0.00  0.00  0.58  0.29  0.00  0.00  0.01  0.00
  
  
  *************************
  Conduit Surcharge Summary
  *************************
  
  ----------------------------------------------------------------------------
                                                           Hours        Hours 
                         --------- Hours Full --------   Above Full   Capacity
  Conduit                Both Ends  Upstream  Dnstream   Normal Flow   Limited
  ----------------------------------------------------------------------------
  C21                         0.01      0.01   8538.71      0.01         0.01
  

  Analysis begun on:  Wed Jan  4 18:25:23 2017
  Analysis ended on:  Wed Jan  4 18:30:29 2017
  Total elapsed time: 00:05:06