
  EPA STORM WATER MANAGEMENT MODEL - VERSION 5.1 (Build 5.1.010)
  --------------------------------------------------------------

  Polygons for the sheds: Projected Coordinate System:NAD_1983_StatePlane_Pennsylvania_South_FIPS_3702_Feet 
  Polygons for the sheds: Projected Coordinate System:NAD_1983_StatePlane_Pennsylvania_South_FIPS_3702_Feet 
  Polygons for the sheds: Projected Coordinate System:NAD_1983_StatePlane_Pennsylvania_South_FIPS_3702_Feet 
  
  ERROR 188: LID capture area exceeds total impervious area for Subcatchment T14_R6_shed.

  Analysis begun on:  Thu Dec 22 00:01:35 2016
  Analysis ended on:  Thu Dec 22 00:01:35 2016
  Total elapsed time: < 1 sec