
  EPA STORM WATER MANAGEMENT MODEL - VERSION 5.1 (Build 5.1.009)
  --------------------------------------------------------------

  Polygons for the sheds: Projected Coordinate System:NAD_1983_StatePlane_Pennsylvania_South_FIPS_3702_Feet 
  Polygons for the sheds: Projected Coordinate System:NAD_1983_StatePlane_Pennsylvania_South_FIPS_3702_Feet 
  Polygons for the sheds: Projected Coordinate System:NAD_1983_StatePlane_Pennsylvania_South_FIPS_3702_Feet 
  
  *************
  Element Count
  *************
  Number of rain gages ...... 1
  Number of subcatchments ... 145
  Number of nodes ........... 76
  Number of links ........... 76
  Number of pollutants ...... 0
  Number of land uses ....... 0
  
  
  ****************
  Raingage Summary
  ****************
                                                      Data       Recording
  Name                 Data Source                    Type       Interval 
  ------------------------------------------------------------------------
  GAGE1                rain_data_philly.dat          
  
  
  ********************
  Subcatchment Summary
  ********************
  Name                       Area     Width   %Imperv    %Slope Rain Gage            Outlet              
  -----------------------------------------------------------------------------------------------------------
  CHEWSTA_shed               5.13    945.00     55.12    5.1648 GAGE1                TT14-275            
  CHEWSTB_shed               8.62   1226.00     15.27   13.5463 GAGE1                TT14-275            
  CLEARVIEW_shed             2.98    721.00     68.88    8.2804 GAGE1                TT14-286            
  T14-A1_shed               99.01   4153.00     62.23    6.6143 GAGE1                TT14-006            
  T14-A2_shed              138.27   4908.00     47.88    5.5028 GAGE1                TT14-016            
  T14-A3_shed               98.68   4147.00     55.94    5.9027 GAGE1                TT14-030            
  T14-A4_shed               91.79   3999.00     74.13    4.6798 GAGE1                TT14-044            
  T14-A5_shed               15.27   1631.00     88.82    4.5005 GAGE1                TT14-048            
  T14_B_shed               327.26   7551.00     65.86    3.4501 GAGE1                TT14-904            
  T14-C1_shed               74.48   3602.00     86.05    4.6450 GAGE1                TT14-048            
  T14-C2_shed               72.21   3547.00     71.70    5.8267 GAGE1                TT14-058            
  T14-C3_shed               29.40   2263.00     61.46    3.7465 GAGE1                TT14-068            
  T14-C4_shed               17.84   1763.00     80.89    4.7208 GAGE1                TT14-068            
  T14-D_shed                81.14   3760.00     50.46    3.6339 GAGE1                TT14-106            
  T14-E_shed               153.01   5163.00     63.67    4.0992 GAGE1                TT14-076            
  T14-F_shed                23.84   2038.00     29.72    5.6956 GAGE1                TT14-076            
  T14-G_shed                55.59   3112.00     66.14    4.4413 GAGE1                TT14-076            
  T14-H_shed                 2.19    618.00     66.15   20.4101 GAGE1                TT14-092            
  T14-J_shed               148.01   5078.00     72.76    5.1622 GAGE1                TT14-306            
  T14-K1_shed               25.55   2110.00     66.17    1.9451 GAGE1                TT14-306            
  T14-K2_shed               25.77   2119.00     79.80    5.0437 GAGE1                TT14-312            
  T14_K3_shed              328.15   7562.00     59.18    6.5841 GAGE1                TT14-312            
  T14-L1_shed                6.84   1092.00     89.62    3.3775 GAGE1                TT14-406            
  T14-L2_shed              105.35   4284.00     66.70    6.1219 GAGE1                TT14-418            
  T14-M1_shed               67.21   3422.00     70.42    5.2613 GAGE1                TT14-202            
  T14-M2_shed               77.25   3669.00     65.70    8.3501 GAGE1                TT14-222            
  T14-P1_shed              106.64   4311.00     36.24    8.7182 GAGE1                TT14-228            
  T14-P2_shed               36.28   2514.00     48.31    8.3055 GAGE1                TT14-240            
  T14-P3_shed               94.70   4062.00     53.42    7.7216 GAGE1                TT14-243            
  T14-P4_shed               60.49   3247.00     51.75    8.6727 GAGE1                TT14-248            
  T14-P5_shed               31.05   2326.00     43.67    9.0507 GAGE1                TT14-262            
  T14-R1_shed               73.62   3582.00     65.16    6.4070 GAGE1                TT14-262            
  T14-R2_shed               64.46   3351.00     50.62    4.6868 GAGE1                TT14-814            
  T14-R3_shed               29.84   2280.00     69.08    3.0616 GAGE1                TT14-828            
  T14-R4_shed               23.46   2022.00     72.59    4.6880 GAGE1                TT14-828            
  T14-R5_shed               72.04   3543.00     54.12    5.2836 GAGE1                TT14-834            
  T14_R6_shed               60.67   3251.00     49.63    3.6605 GAGE1                TT14-834            
  T14-R7_shed               73.82   3586.00     45.51    4.4664 GAGE1                TT14-848            
  T14-T_shed                 6.05   1027.00     79.71    4.4655 GAGE1                TT14-112            
  T14-U_shed                13.50   1534.00     77.62    7.3625 GAGE1                TT14-112            
  TT14-262A_shed            95.49   4079.00     58.84    7.2167 GAGE1                TT14-262            
  TT14-263A_shed            15.20   1627.00     38.58    6.8504 GAGE1                TT14-263            
  TT14-264A_shed            22.33   1973.00     63.42    7.7536 GAGE1                TT14-264            
  TT14-264B_shed             2.35    640.00     56.69   16.0470 GAGE1                TT14-264            
  TT14-264C_shed            26.04   2130.00     53.43    5.4776 GAGE1                TT14-264            
  TT14-264D_shed            22.12   1963.00     63.23    4.2933 GAGE1                TT14-264            
  TT14-264E_shed             2.58    670.00     78.84    9.3642 GAGE1                TT14-264            
  TT14-266A_shed             1.50    511.00     81.19    6.4237 GAGE1                TT14-268            
  TT14-266B_shed             3.70    803.00     90.08    5.6761 GAGE1                TT14-268            
  TT14-270A_shed             4.51    886.00     54.27    9.0885 GAGE1                TT14-268            
  TT14-270B_shed             3.12    737.00     35.03    6.3066 GAGE1                TT14-268            
  TT14-272A_shed             3.42    772.00     44.73    8.5089 GAGE1                TT14-275            
  TT14-274A_shed             2.08    602.00     85.84    4.3110 GAGE1                TT14-275            
  TT14-274B_shed            11.11   1391.00     60.58    8.7356 GAGE1                TT14-275            
  TT14-274C_shed            16.67   1704.00     61.86    7.8600 GAGE1                TT14-275            
  TT14-278A_shed             5.74   1000.00     67.35   12.9272 GAGE1                TT14-280            
  TT14-278B_shed            12.67   1486.00     58.41    7.3345 GAGE1                TT14-280            
  TT14-278C_shed             2.67    682.00     81.92    6.1641 GAGE1                TT14-280            
  TT14-280A_shed             1.85    568.00     61.93   10.2883 GAGE1                TT14-280            
  TT14-282A_shed            39.75   2632.00     64.22    7.4516 GAGE1                TT14-280            
  TT14-284A_shed             2.94    716.00     59.79    3.7087 GAGE1                TT14-286            
  TT14-284B_shed             0.55    310.00     69.24    4.3028 GAGE1                TT14-286            
  TT14-284C_shed             0.95    407.00     85.75    2.3486 GAGE1                TT14-286            
  TT14-286A_shed             2.56    668.00     78.26    5.0568 GAGE1                TT14-286            
  TT14-288A_shed             0.43    274.00     82.84    2.7076 GAGE1                TT14-286            
  TT14-288B_shed             6.60   1072.00     70.84   12.1775 GAGE1                TT14-286            
  TT14-288C_shed             3.21    748.00     46.19    8.6243 GAGE1                TT14-286            
  TT14-291A_shed            18.07   1774.00     59.44    7.7606 GAGE1                TT14-291            
  TT14-291B_shed             5.33    964.00     65.68    5.4610 GAGE1                TT14-291            
  TT14-291C_shed             0.58    318.00     92.36    0.0293 GAGE1                TT14-291            
  TT14-291D_shed            85.18   3853.00     25.08    7.1724 GAGE1                TT14-291            
  TT14-294A_shed             1.85    568.00     60.11    3.4355 GAGE1                TT14-296            
  TT14-294B_shed             0.71    352.00     62.98    7.0827 GAGE1                TT14-296            
  TT14-294C_shed            14.12   1569.00     51.41    9.3086 GAGE1                TT14-296            
  TT14-296A_shed             0.96    409.00     81.79    4.4320 GAGE1                TT14-296            
  TT14-296B_shed           186.82   5705.00     54.48    5.5072 GAGE1                TT14-296            
  TT14-502_shed            112.50   4427.00     36.23    9.5180 GAGE1                TT14-502            
  TT14-524_shed             85.18   3853.00     67.08    5.8370 GAGE1                TT14-524            
  TT14-530_shed             89.78   3955.00     73.73    6.7967 GAGE1                TT14-530            
  TT14-544_shed             31.09   2327.00     68.91    8.4910 GAGE1                TT14-546            
  TT14-552A_shed            47.94   2890.00     67.63    5.3960 GAGE1                TT14-554            
  TT14_552B_shed           105.38   4285.00     56.25    4.0840 GAGE1                TT14-554            
  TT14-554_shed             12.55   1479.00     62.53    4.3423 GAGE1                TT14-554            
  TT14-558_shed            121.62   4603.00     63.76    3.5397 GAGE1                TT14-560            
  TT14-560_shed             29.10   2252.00     61.54    5.6022 GAGE1                TT14-560            
  TT14_574_shed            150.12   5114.00     50.05    5.8044 GAGE1                TT14-574            
  TT14-584_shed            143.95   5008.00     56.00    5.9178 GAGE1                TT14-582            
  TT14-602A_shed             1.86    569.00     83.39    9.3377 GAGE1                TT14-296            
  TT14-602B_shed             6.37   1054.00     43.80    6.2733 GAGE1                TT14-296            
  TT14-602C_shed            36.63   2526.00     42.88    7.0148 GAGE1                TT14-296            
  TT14-602D_shed             3.85    819.00     55.71    5.0698 GAGE1                TT14-296            
  TT14-606A_shed             2.91    712.00     62.20    8.6558 GAGE1                TT14-606            
  TT14-606B_shed             5.32    963.00     63.73    5.9962 GAGE1                TT14-606            
  TT14-610A_shed             0.62    329.00     66.53    2.3854 GAGE1                TT14-612            
  TT14-610B_shed             0.84    383.00     71.02    6.4988 GAGE1                TT14-612            
  TT14-610C_shed            53.32   3048.00     48.88    8.1023 GAGE1                TT14-612            
  TT14-610D_shed             3.62    794.00     49.47    4.6156 GAGE1                TT14-612            
  TT14-612A_shed             2.48    657.00     54.28    5.4626 GAGE1                TT14-612            
  TT14-612B_shed             0.77    366.00     60.70    5.4389 GAGE1                TT14-612            
  TT14-612C_shed             5.96   1019.00     67.18    5.9432 GAGE1                TT14-612            
  TT14-614A_shed             2.34    639.00     48.64    6.3496 GAGE1                TT14-616            
  TT14-614B_shed             0.87    389.00     65.41    5.8590 GAGE1                TT14-616            
  TT14-614C_shed             4.31    867.00     71.41    7.0414 GAGE1                TT14-616            
  TT14-616A_shed             2.33    637.00     65.53    5.7363 GAGE1                TT14-616            
  TT14-616B_shed             4.00    835.00     65.86    6.5364 GAGE1                TT14-616            
  TT14-618A_shed            14.09   1567.00     66.26    7.2702 GAGE1                TT14-622            
  TT14-620A_shed             3.46    776.00     63.96    7.3269 GAGE1                TT14-622            
  TT14-620B_shed            92.26   4009.00     50.31    6.4510 GAGE1                TT14-622            
  TT14-622A_shed             4.20    855.00     63.61    6.4604 GAGE1                TT14-622            
  TT14-624A_shed             3.46    776.00     64.01    6.2178 GAGE1                TT14-622            
  TT14-630A_shed             7.72   1160.00     51.84    7.5646 GAGE1                TT14-622            
  TT14-636A_shed             1.03    424.00     66.54    6.6110 GAGE1                TT14-636            
  TT14-636B_shed             5.74   1000.00     53.45    6.0380 GAGE1                TT14-636            
  TT14-639A_shed             1.75    552.00     64.57    6.3578 GAGE1                TT14-639            
  TT14-639B_shed             9.81   1307.00     44.85   11.9940 GAGE1                TT14-639            
  TT14-639C_shed            10.13   1329.00     48.05    7.4148 GAGE1                TT14-639            
  TT14-640A_shed             3.48    779.00     43.61    6.5414 GAGE1                TT14-642            
  TT14-642A_shed            23.68   2031.00     33.71    7.0016 GAGE1                TT14-642            
  TT14-642B_shed             2.14    611.00     57.98   11.4478 GAGE1                TT14-642            
  TT14-642C_shed             6.73   1083.00     45.41    6.3176 GAGE1                TT14-642            
  TT14-644A_shed             3.43    773.00     36.66    4.9399 GAGE1                TT14-642            
  TT14_646A_shed            73.42   3577.00     52.52    6.1808 GAGE1                TT14-646            
  TT14-648A_shed            47.95   2890.00     41.43    6.2150 GAGE1                TT14-646            
  TT14-648B_shed             3.55    786.00     54.98    8.1076 GAGE1                TT14-646            
  TT14-658A_shed            22.00   1958.00     43.94    7.3366 GAGE1                TT14-660            
  TT14-658B_shed             9.66   1297.00     52.68    7.8042 GAGE1                TT14-660            
  TT14-660A_shed             3.35    764.00     45.31    6.1643 GAGE1                TT14-660            
  TT14-666A_shed             6.87   1094.00     57.50    6.5173 GAGE1                TT14-666            
  TT14-668A_shed             3.91    825.00     38.03    5.8384 GAGE1                TT14-666            
  TT14-676A_shed             3.99    834.00     46.58    5.9884 GAGE1                TT14-676            
  TT14-684A_shed             3.20    747.00     44.46    5.3639 GAGE1                TT14-688            
  TT14-684B_shed             1.19    455.00     58.03    6.6967 GAGE1                TT14-688            
  TT14-688A_shed             1.62    531.00     51.17    5.7306 GAGE1                TT14-688            
  TT14-688B_shed             0.77    366.00     67.52    6.3366 GAGE1                TT14-688            
  TT14-688C_shed             3.27    755.00     61.60    5.2865 GAGE1                TT14-688            
  TT14-690A_shed             5.05    938.00     51.49    2.7878 GAGE1                TT14-692            
  TT14-690B_shed             1.07    432.00     47.07    5.0811 GAGE1                TT14-692            
  TT14-692A_shed             5.82   1007.00     46.68    4.6122 GAGE1                TT14-692            
  TT14-702_shed             43.93   2767.00     68.08    6.5474 GAGE1                TT14-702            
  TT14-706_shed             60.21   3239.00     55.34    5.1472 GAGE1                TT14-708            
  TT14-708_shed             82.20   3785.00     46.91    5.6262 GAGE1                TT14-708            
  TT14_720_shed            132.26   4801.00     57.69    6.5093 GAGE1                TT14-716            
  TT14-736_shed             83.15   3806.00     53.93    5.1102 GAGE1                TT14-738            
  TT14-740_shed             50.24   2959.00     50.41    4.5462 GAGE1                TT14-738            
  TT14-746_shed             51.49   2995.00     39.35    4.2342 GAGE1                TT14-746            
  
  
  ************
  Node Summary
  ************
                                           Invert      Max.    Ponded    External
  Name                 Type                 Elev.     Depth      Area    Inflow  
  -------------------------------------------------------------------------------
  TT14-006             JUNCTION             27.51     87.39       0.0
  TT14-044             JUNCTION             42.38     78.42       0.0
  TT14-030             JUNCTION             36.52     64.98       0.0
  TT14-904             JUNCTION             43.58     67.12       0.0
  TT14-048             JUNCTION             44.52     79.98       0.0
  TT14-058             JUNCTION             49.57     29.53       0.0
  TT14-068             JUNCTION             53.44     55.86       0.0
  TT14-106             JUNCTION             53.83     64.87       0.0
  TT14-076             JUNCTION             57.57     71.33       0.0
  TT14-092             JUNCTION             68.16     51.84       0.0
  TT14-112             JUNCTION             68.08     58.22       0.0
  TT14-202             JUNCTION             72.43     25.97       0.0
  TT14-406             JUNCTION             77.83     37.07       0.0
  TT14-418             JUNCTION             86.72     50.38       0.0
  TT14-306             JUNCTION             69.20     54.80       0.0
  TT14-312             JUNCTION             89.85     64.05       0.0
  TT14-222             JUNCTION             82.70     54.50       0.0
  TT14-228             JUNCTION             88.00     78.00       0.0
  TT14-502             JUNCTION             92.61     27.29       0.0
  TT14-524             JUNCTION            124.63     40.47       0.0
  TT14-240             JUNCTION            119.64     68.16       0.0
  TT14-243             JUNCTION            128.55    111.75       0.0
  TT14-248             JUNCTION            141.51    100.00       0.0
  TT14-546             JUNCTION            159.48    100.00       0.0
  TT14-530             JUNCTION            134.72     80.28       0.0
  TT14-262             JUNCTION            161.00     51.90       0.0
  TT14-814             JUNCTION            172.88     45.22       0.0
  TT14-263             JUNCTION            169.19     81.31       0.0
  TT14-828             JUNCTION            199.43     39.57       0.0
  TT14-834             JUNCTION            217.92     27.98       0.0
  TT14-264             JUNCTION            180.16    100.00       0.0
  TT14-268             JUNCTION            191.54     53.86       0.0
  TT14-554             JUNCTION            171.70     33.40       0.0
  TT14-560             JUNCTION            185.60     36.60       0.0
  TT14-574             JUNCTION            198.62     41.28       0.0
  TT14-582             JUNCTION            204.52     66.98       0.0
  TT14-275             JUNCTION            200.39    100.00       0.0
  TT14-280             JUNCTION            208.48    100.00       0.0
  TT14-286             JUNCTION            214.29     95.71       0.0
  TT14-291             JUNCTION            222.40    103.00       0.0
  TT14-296             JUNCTION            228.48     30.42       0.0
  TT14-606             JUNCTION            232.91     59.09       0.0
  TT14-746             JUNCTION            319.04    100.00       0.0
  TT14-738             JUNCTION            303.71    100.00       0.0
  TT14-716             JUNCTION            268.81     82.69       0.0
  TT14-708             JUNCTION            260.50     36.30       0.0
  TT14-702             JUNCTION            248.90    100.00       0.0
  TT14-612             JUNCTION            242.53    100.00       0.0
  TT14-616             JUNCTION            245.92    100.00       0.0
  TT14-622             JUNCTION            251.34     26.86       0.0
  TT14-636             JUNCTION            260.84     77.26       0.0
  TT14-639             JUNCTION            263.69     31.32       0.0
  TT14-642             JUNCTION            268.42    100.00       0.0
  TT14-646             JUNCTION            274.44     38.16       0.0
  TT14-660             JUNCTION            306.23     65.07       0.0
  TT14-666             JUNCTION            311.00    100.00       0.0
  TT14-676             JUNCTION            316.00    100.00       0.0
  TT14-688             JUNCTION            321.00    100.00       0.0
  TT14-692             JUNCTION            326.00    100.00       0.0
  TT14-848             JUNCTION            244.19     34.31       0.0
  TT14-016             JUNCTION             28.96     79.34       0.0
  T14_1_1090           JUNCTION             36.94     67.56       0.0
  T14_1_1160           JUNCTION             37.73     66.57       0.0
  T14_1_1440_west_split JUNCTION             47.67     58.03       0.0
  T14_1_2390_east      JUNCTION             68.64     29.46       0.0
  T14_1_2410           JUNCTION             69.22    100.00       0.0
  T14_1_1520_west      JUNCTION             68.48     58.82       0.0
  T14_2_230            JUNCTION            112.90     77.10       0.0
  T14_2_2040           JUNCTION            273.38     21.62       0.0
  T14_2_2070           JUNCTION            273.74     72.36       0.0
  T14_2_2120           JUNCTION            276.38     47.92       0.0
  T14_2_2530           JUNCTION            310.30     68.30       0.0
  T14_3_640            JUNCTION            159.90     87.31       0.0
  T14_3_3_10           JUNCTION            166.82     57.98       0.0
  T14_3_1340           JUNCTION            237.51     32.29       0.0
  outfall              OUTFALL              24.00     21.00       0.0
  
  
  ************
  Link Summary
  ************
  Name             From Node        To Node          Type            Length    %Slope Roughness
  ---------------------------------------------------------------------------------------------
  C1               TT14-016         TT14-006         CONDUIT          695.0    0.2086    0.0130
  C2               TT14-030         TT14-016         CONDUIT         2844.6    0.2658    0.0130
  C3               TT14-904         TT14-030         CONDUIT          710.9    0.9929    0.0150
  C4               T14_1_1090       TT14-030         CONDUIT          843.4    0.0496    0.0130
  C5               T14_1_1160       T14_1_1090       CONDUIT          261.3    0.3023    0.0100
  C6               TT14-044         T14_1_1160       CONDUIT         1421.4    0.3271    0.0130
  C7               TT14-048         TT14-044         CONDUIT          638.4    0.3354    0.0130
  C8               T14_1_1440_west_split TT14-048         CONDUIT          536.0    0.5877    0.0130
  C9               TT14-106         T14_1_1440_west_split CONDUIT         2372.7    0.2596    0.0130
  C10              TT14-112         TT14-106         CONDUIT         2664.7    0.5346    0.0130
  C11              TT14-076         TT14-068         CONDUIT         1061.0    0.3893    0.0150
  C12              TT14-092         TT14-076         CONDUIT         1906.2    0.5556    0.0150
  C13              TT14-058         TT14-048         CONDUIT         1331.1    0.3794    0.0130
  C14              TT14-068         TT14-058         CONDUIT          904.2    0.4280    0.0100
  C15              T14_1_2390_east  TT14-092         CONDUIT          347.7    0.1369    0.0130
  C16              TT14-306         T14_1_2410       CONDUIT          368.7    2.7285    0.0150
  C17              T14_1_2410       T14_1_2390_east  CONDUIT           94.1    0.6206    0.0130
  C18              T14_1_2410       T14_1_1520_west  CONDUIT           75.6    0.9789    0.0130
  C19              T14_1_1520_west  TT14-112         CONDUIT          102.0    0.3961    0.0130
  C20              TT14-202         T14_1_2410       CONDUIT          133.0    2.4142    0.0100
  C21              TT14-312         TT14-306         CONDUIT          133.0   15.7193    0.0100
  C22              TT14-406         T14_1_2390_east  CONDUIT          896.7    1.0254    0.0130
  C23              TT14-418         TT14-406         CONDUIT         1341.9    0.6625    0.0130
  C24              TT14-222         TT14-202         CONDUIT         1841.0    0.5579    0.0130
  C25              TT14-228         TT14-222         CONDUIT          868.6    0.6102    0.0130
  C26              TT14-502         TT14-228         CONDUIT          112.2    7.2368    0.0130
  C27              T14_2_230        TT14-502         CONDUIT         2408.2    0.8425    0.0130
  C28              TT14-524         T14_2_230        CONDUIT         1030.9    1.1378    0.0130
  C29              TT14-530         TT14-524         CONDUIT         1030.9    0.9789    0.0150
  C30              TT14-546         TT14-530         CONDUIT         1641.5    1.5085    0.0150
  C31              TT14-554         TT14-546         CONDUIT          884.0    1.3827    0.0150
  C32              TT14-560         TT14-554         CONDUIT         1100.2    1.2635    0.0150
  C33              TT14-574         TT14-560         CONDUIT         1306.4    0.9969    0.0150
  C34              TT14-582         TT14-574         CONDUIT          972.9    0.6062    0.0150
  C35              TT14-702         TT14-582         CONDUIT         2477.0    1.7921    0.0150
  C36              TT14-708         TT14-702         CONDUIT          929.5    1.2478    0.0130
  C37              TT14-716         TT14-708         CONDUIT         1124.0    0.7393    0.0130
  C38              T14_2_2040       TT14-716         CONDUIT          736.9    0.6202    0.0130
  C39              T14_2_2070       T14_2_2040       CONDUIT           31.0    1.1452    0.0150
  C40              T14_2_2120       T14_2_2070       CONDUIT          231.4    1.1453    0.0130
  C41              TT14-738         T14_2_2120       CONDUIT         2076.9    1.3158    0.0130
  C42              T14_2_2530       TT14-738         CONDUIT          499.6    1.3193    0.0130
  C43              TT14-746         T14_2_2530       CONDUIT          554.3    1.5771    0.0150
  C44              TT14-240         TT14-228         CONDUIT         2468.4    1.2819    0.0130
  C45              TT14-243         TT14-240         CONDUIT          621.7    1.4332    0.0130
  C46              TT14-248         TT14-243         CONDUIT          743.4    1.7441    0.0130
  C47              T14_3_640        TT14-248         CONDUIT         1057.3    1.7388    0.0130
  C48              TT14-262         T14_3_640        CONDUIT         1194.3    0.0925    0.0150
  C49              T14_3_3_10       TT14-262         CONDUIT          129.4    0.1935    0.0150
  C50              TT14-814         T14_3_3_10       CONDUIT          646.9    0.9376    0.0150
  C51              TT14-814         TT14-828         CONDUIT         4185.2   -0.6344    0.0130
  C52              TT14-834         TT14-828         CONDUIT         1126.3    1.6415    0.0130
  C53              TT14-848         TT14-834         CONDUIT         1543.2    1.7028    0.0150
  C54              TT14-263         TT14-262         CONDUIT          681.5    1.2013    0.0150
  C55              TT14-264         TT14-263         CONDUIT          945.5    1.1607    0.0150
  C56              TT14-268         TT14-264         CONDUIT          972.2    1.1707    0.0150
  C57              TT14-275         TT14-268         CONDUIT          810.7    1.0917    0.0150
  C58              TT14-280         TT14-275         CONDUIT          757.8    1.0676    0.0150
  C59              TT14-286         TT14-280         CONDUIT          579.2    1.0032    0.0150
  C60              TT14-291         TT14-286         CONDUIT          788.5    1.0286    0.0150
  C61              TT14-296         TT14-291         CONDUIT          834.7    0.7285    0.0150
  C62              TT14-606         TT14-296         CONDUIT          627.9    0.7054    0.0130
  C63              T14_3_1340       TT14-606         CONDUIT          713.5    0.6454    0.0130
  C64              TT14-612         T14_3_1340       CONDUIT          292.8    1.7130    0.0150
  C65              TT14-616         TT14-612         CONDUIT          249.6    1.3587    0.0150
  C66              TT14-622         TT14-616         CONDUIT          350.7    1.5457    0.0150
  C67              TT14-636         TT14-622         CONDUIT          653.4    1.1740    0.0130
  C68              TT14-639         TT14-636         CONDUIT          233.8    1.2169    0.0150
  C69              TT14-642         TT14-639         CONDUIT          422.9    1.1198    0.0150
  C70              TT14-646         TT14-642         CONDUIT          542.7    1.1086    0.0150
  C71              TT14-660         TT14-646         CONDUIT          990.7    3.2110    0.0150
  C72              TT14-666         TT14-660         CONDUIT          406.9    1.1718    0.0150
  C73              TT14-676         TT14-666         CONDUIT          743.3    0.6727    0.0150
  C74              TT14-688         TT14-676         CONDUIT          859.2    0.5819    0.0150
  C75              TT14-692         TT14-688         CONDUIT          251.9    1.9851    0.0150
  outflow          TT14-006         outfall          CONDUIT         1090.0    0.3220    0.0130
  
  
  *********************
  Cross Section Summary
  *********************
                                        Full     Full     Hyd.     Max.   No. of     Full
  Conduit          Shape               Depth     Area     Rad.    Width  Barrels     Flow
  ---------------------------------------------------------------------------------------
  C1               MODBASKETHANDLE     21.00   442.19     5.55    24.00        1  7235.82
  C2               MODBASKETHANDLE     21.00   442.19     5.55    24.00        1  8167.78
  C3               CIRCULAR             7.00    38.48     1.75     7.00        1   551.68
  C4               RECT_OPEN           19.00   418.00     6.97    22.00        1  3880.07
  C5               CIRCULAR            19.00   283.53     4.75    19.00        1  6546.21
  C6               CIRCULAR            19.00   283.53     4.75    19.00        1  5237.50
  C7               RECT_OPEN           18.00   378.00     6.63    21.00        1  8832.32
  C8               RECT_OPEN           15.00   255.00     5.43    17.00        1  6899.55
  C9               MODBASKETHANDLE     12.00   214.42     3.68    21.00        1  2979.44
  C10              RECT_OPEN           16.00   272.00     5.55    17.00        1  7127.18
  C11              CIRCULAR            16.00   201.06     4.00    16.00        1  3131.53
  C12              CIRCULAR            14.00   153.94     3.50    14.00        1  2620.32
  C13              CIRCULAR            17.50   240.53     4.38    17.50        1  4530.11
  C14              CIRCULAR            17.40   237.79     4.35    17.40        1  6160.06
  C15              RECT_OPEN           14.00   196.00     4.67    14.00        1  2314.82
  C16              CIRCULAR             8.00    50.27     2.00     8.00        1  1305.70
  C17              RECT_CLOSED          6.00    69.00     1.97    11.50        1   976.92
  C18              RECT_CLOSED          6.00    55.06     1.81     9.18        1   926.23
  C19              RECT_OPEN           14.00   224.00     5.09    16.00        1  4768.84
  C20              RECT_OPEN           15.00   255.00     5.43    17.00        1 18179.30
  C21              CIRCULAR             7.50    44.18     1.88     7.50        1  3957.75
  C22              RECT_OPEN            6.00    30.00     1.76     5.00        1   507.10
  C23              RECT_OPEN            6.00    30.00     1.76     5.00        1   407.60
  C24              RECT_OPEN           15.00   300.00     6.00    20.00        1  8457.19
  C25              RECT_OPEN           15.00   255.00     5.43    17.00        1  7030.50
  C26              RECT_OPEN           12.00   216.00     5.14    18.00        1 19789.67
  C27              RECT_OPEN            9.50   133.00     4.03    14.00        1  3534.03
  C28              CIRCULAR            10.00    78.54     2.50    10.00        1  1763.95
  C29              CIRCULAR             9.50    70.88     2.38     9.50        1  1236.76
  C30              CIRCULAR             9.00    63.62     2.25     9.00        1  1329.10
  C31              CIRCULAR             8.50    56.75     2.13     8.50        1  1092.59
  C32              CIRCULAR             8.50    56.75     2.13     8.50        1  1044.42
  C33              CIRCULAR             8.50    56.75     2.13     8.50        1   927.71
  C34              CIRCULAR             8.50    56.75     2.13     8.50        1   723.46
  C35              CIRCULAR             8.50    56.75     2.13     8.50        1  1243.88
  C36              RECT_OPEN            8.00    60.00     2.55     7.50        1  1431.15
  C37              RECT_OPEN            8.00    60.00     2.55     7.50        1  1101.61
  C38              RECT_OPEN            7.50    56.25     2.50     7.50        1   932.72
  C39              CIRCULAR             6.00    28.27     1.50     6.00        1   392.79
  C40              RECT_OPEN            6.00    36.00     2.00     6.00        1   699.07
  C41              RECT_OPEN            7.50    45.00     2.14     6.00        1   980.71
  C42              RECT_OPEN            6.00    30.00     1.76     5.00        1   575.19
  C43              CIRCULAR             5.00    19.63     1.25     5.00        1   283.46
  C44              RECT_OPEN           13.00   286.00     5.96    22.00        1 12165.15
  C45              RECT_OPEN           13.00   279.50     5.88    21.50        1 12466.38
  C46              RECT_OPEN           13.00   279.50     5.88    21.50        1 13752.22
  C47              RECT_OPEN           13.00   279.50     5.88    21.50        1 13730.99
  C48              CIRCULAR            12.00   113.10     3.00    12.00        1   708.90
  C49              CIRCULAR             7.00    38.48     1.75     7.00        1   243.53
  C50              RECT_OPEN            7.00    56.00     2.55     8.00        1  1001.46
  C51              RECT_OPEN            6.50    48.75     2.38     7.50        1   790.73
  C52              RECT_OPEN            6.00    36.00     2.00     6.00        1   836.92
  C53              CIRCULAR             5.00    19.63     1.25     5.00        1   294.54
  C54              CIRCULAR             9.00    63.62     2.25     9.00        1  1186.07
  C55              CIRCULAR             8.50    56.75     2.13     8.50        1  1001.06
  C56              CIRCULAR             8.50    56.75     2.13     8.50        1  1005.33
  C57              CIRCULAR             8.50    56.75     2.13     8.50        1   970.84
  C58              CIRCULAR             8.25    53.46     2.06     8.25        1   886.59
  C59              CIRCULAR             8.25    53.46     2.06     8.25        1   859.45
  C60              CIRCULAR             8.25    53.46     2.06     8.25        1   870.26
  C61              CIRCULAR             8.25    53.46     2.06     8.25        1   732.36
  C62              RECT_OPEN           10.00    90.00     3.10     9.00        1  1838.36
  C63              RECT_OPEN           11.50    92.00     2.97     8.00        1  1744.76
  C64              CIRCULAR             7.50    44.18     1.88     7.50        1   871.01
  C65              CIRCULAR             7.50    44.18     1.88     7.50        1   775.72
  C66              CIRCULAR             7.50    44.18     1.88     7.50        1   827.37
  C67              RECT_OPEN           10.50    73.50     2.63     7.00        1  1732.27
  C68              CIRCULAR             7.00    38.48     1.75     7.00        1   610.76
  C69              CIRCULAR             6.00    28.27     1.50     6.00        1   388.41
  C70              CIRCULAR             6.00    28.27     1.50     6.00        1   386.45
  C71              CIRCULAR             4.00    12.57     1.00     4.00        1   223.08
  C72              CIRCULAR             3.50     9.62     0.88     3.50        1    94.39
  C73              CIRCULAR             3.50     9.62     0.88     3.50        1    71.52
  C74              CIRCULAR             3.50     9.62     0.88     3.50        1    66.52
  C75              CIRCULAR             3.00     7.07     0.75     3.00        1    81.44
  outflow          MODBASKETHANDLE     21.00   442.19     5.55    24.00        1  8989.53
  
  
  
  *********************
  Rainfall File Summary
  *********************
  Station    First        Last         Recording   Periods    Periods    Periods
  ID         Date         Date         Frequency  w/Precip    Missing    Malfunc.
  -------------------------------------------------------------------------------
  PHILADELPHIA JAN-28-2007  JAN-01-2016     60 min     50601          0          0

  
  *********************************************************
  NOTE: The summary statistics displayed in this report are
  based on results found at every computational time step,  
  not just on results from each reporting time step.
  *********************************************************
  
  ****************
  Analysis Options
  ****************
  Flow Units ............... CFS
  Process Models:
    Rainfall/Runoff ........ YES
    RDII ................... NO
    Snowmelt ............... NO
    Groundwater ............ NO
    Flow Routing ........... YES
    Ponding Allowed ........ NO
    Water Quality .......... NO
  Infiltration Method ...... GREEN_AMPT
  Flow Routing Method ...... DYNWAVE
  Starting Date ............ JUL-10-2008 00:00:00
  Ending Date .............. JUL-20-2008 00:00:00
  Antecedent Dry Days ...... 0.0
  Report Time Step ......... 00:15:00
  Wet Time Step ............ 00:15:00
  Dry Time Step ............ 00:15:00
  Routing Time Step ........ 15.00 sec
  Variable Time Step ....... YES
  Maximum Trials ........... 8
  Number of Threads ........ 1
  Head Tolerance ........... 0.005000 ft
  
  
  **************************        Volume         Depth
  Runoff Quantity Continuity     acre-feet        inches
  **************************     ---------       -------
  Total Precipitation ......        85.723         0.190
  Evaporation Loss .........         7.459         0.017
  Infiltration Loss ........        36.288         0.080
  Surface Runoff ...........        42.194         0.094
  Final Storage ............         0.000         0.000
  Continuity Error (%) .....        -0.253
  
  
  **************************        Volume        Volume
  Flow Routing Continuity        acre-feet      10^6 gal
  **************************     ---------     ---------
  Dry Weather Inflow .......         0.000         0.000
  Wet Weather Inflow .......        42.194        13.749
  Groundwater Inflow .......         0.000         0.000
  RDII Inflow ..............         0.000         0.000
  External Inflow ..........         0.000         0.000
  External Outflow .........        39.755        12.955
  Flooding Loss ............         0.000         0.000
  Evaporation Loss .........         0.048         0.016
  Exfiltration Loss ........         0.000         0.000
  Initial Stored Volume ....         0.001         0.000
  Final Stored Volume ......         1.422         0.464
  Continuity Error (%) .....         2.299
  
  
  *************************
  Highest Continuity Errors
  *************************
  Node TT14-306 (23.19%)
  Node TT14-502 (12.42%)
  
  
  ***************************
  Time-Step Critical Elements
  ***************************
  None
  
  
  ********************************
  Highest Flow Instability Indexes
  ********************************
  All links are stable.
  
  
  *************************
  Routing Time Step Summary
  *************************
  Minimum Time Step           :    14.50 sec
  Average Time Step           :    15.00 sec
  Maximum Time Step           :    15.00 sec
  Percent in Steady State     :     0.00
  Average Iterations per Step :     2.00
  Percent Not Converging      :     0.00
  
  
  ***************************
  Subcatchment Runoff Summary
  ***************************
  
  --------------------------------------------------------------------------------------------------------
                            Total      Total      Total      Total      Total       Total     Peak  Runoff
                           Precip      Runon       Evap      Infil     Runoff      Runoff   Runoff   Coeff
  Subcatchment                 in         in         in         in         in    10^6 gal      CFS
  --------------------------------------------------------------------------------------------------------
  CHEWSTA_shed               0.19       0.00       0.01       0.09       0.09        0.01     0.17   0.481
  CHEWSTB_shed               0.19       0.00       0.00       0.16       0.03        0.01     0.08   0.134
  CLEARVIEW_shed             0.19       0.00       0.02       0.06       0.11        0.01     0.12   0.602
  T14-A1_shed                0.19       0.00       0.02       0.07       0.10        0.27     3.58   0.531
  T14-A2_shed                0.19       0.00       0.01       0.10       0.08        0.29     3.85   0.409
  T14-A3_shed                0.19       0.00       0.02       0.08       0.09        0.24     3.21   0.478
  T14-A4_shed                0.19       0.00       0.02       0.05       0.12        0.30     3.91   0.629
  T14-A5_shed                0.19       0.00       0.02       0.02       0.15        0.06     0.79   0.763
  T14_B_shed                 0.19       0.00       0.02       0.06       0.10        0.93    11.57   0.549
  T14-C1_shed                0.19       0.00       0.03       0.03       0.14        0.28     3.67   0.729
  T14-C2_shed                0.19       0.00       0.02       0.05       0.12        0.23     3.00   0.612
  T14-C3_shed                0.19       0.00       0.02       0.07       0.10        0.08     1.06   0.528
  T14-C4_shed                0.19       0.00       0.02       0.04       0.13        0.06     0.84   0.696
  T14-D_shed                 0.19       0.00       0.01       0.09       0.08        0.18     2.38   0.431
  T14-E_shed                 0.19       0.00       0.02       0.07       0.10        0.42     5.54   0.538
  T14-F_shed                 0.19       0.00       0.01       0.13       0.05        0.03     0.42   0.259
  T14-G_shed                 0.19       0.00       0.02       0.06       0.11        0.16     2.14   0.565
  T14-H_shed                 0.19       0.00       0.02       0.06       0.11        0.01     0.08   0.581
  T14-J_shed                 0.19       0.00       0.02       0.05       0.12        0.47     6.12   0.615
  T14-K1_shed                0.19       0.00       0.02       0.06       0.11        0.07     0.98   0.565
  T14-K2_shed                0.19       0.00       0.02       0.04       0.13        0.09     1.20   0.685
  T14_K3_shed                0.19       0.00       0.02       0.08       0.09        0.85    10.98   0.499
  T14-L1_shed                0.19       0.00       0.02       0.02       0.15        0.03     0.36   0.773
  T14-L2_shed                0.19       0.00       0.02       0.06       0.11        0.31     4.07   0.568
  T14-M1_shed                0.19       0.00       0.02       0.06       0.11        0.21     2.75   0.601
  T14-M2_shed                0.19       0.00       0.02       0.07       0.11        0.22     2.96   0.563
  T14-P1_shed                0.19       0.00       0.01       0.12       0.06        0.17     2.26   0.313
  T14-P2_shed                0.19       0.00       0.01       0.10       0.08        0.08     1.03   0.418
  T14-P3_shed                0.19       0.00       0.01       0.09       0.09        0.22     2.95   0.458
  T14-P4_shed                0.19       0.00       0.01       0.09       0.08        0.14     1.83   0.446
  T14-P5_shed                0.19       0.00       0.01       0.11       0.07        0.06     0.79   0.379
  T14-R1_shed                0.19       0.00       0.02       0.07       0.11        0.21     2.79   0.557
  T14-R2_shed                0.19       0.00       0.01       0.09       0.08        0.14     1.90   0.434
  T14-R3_shed                0.19       0.00       0.02       0.06       0.11        0.09     1.20   0.591
  T14-R4_shed                0.19       0.00       0.02       0.05       0.12        0.08     1.00   0.624
  T14-R5_shed                0.19       0.00       0.02       0.09       0.09        0.17     2.27   0.464
  T14_R6_shed                0.19       0.00       0.01       0.10       0.08        0.13     1.76   0.425
  T14-R7_shed                0.19       0.00       0.01       0.10       0.07        0.15     1.96   0.390
  T14-T_shed                 0.19       0.00       0.02       0.04       0.13        0.02     0.28   0.691
  T14-U_shed                 0.19       0.00       0.02       0.04       0.13        0.05     0.61   0.672
  TT14-262A_shed             0.19       0.00       0.02       0.08       0.10        0.25     3.27   0.503
  TT14-263A_shed             0.19       0.00       0.01       0.12       0.06        0.03     0.34   0.336
  TT14-264A_shed             0.19       0.00       0.02       0.07       0.10        0.06     0.83   0.549
  TT14-264B_shed             0.19       0.00       0.01       0.08       0.09        0.01     0.08   0.498
  TT14-264C_shed             0.19       0.00       0.01       0.09       0.09        0.06     0.81   0.462
  TT14-264D_shed             0.19       0.00       0.02       0.07       0.10        0.06     0.82   0.545
  TT14-264E_shed             0.19       0.00       0.02       0.04       0.13        0.01     0.12   0.689
  TT14-266A_shed             0.19       0.00       0.02       0.04       0.13        0.01     0.07   0.710
  TT14-266B_shed             0.19       0.00       0.02       0.02       0.15        0.01     0.20   0.783
  TT14-270A_shed             0.19       0.00       0.01       0.09       0.09        0.01     0.14   0.475
  TT14-270B_shed             0.19       0.00       0.01       0.12       0.06        0.00     0.06   0.308
  TT14-272A_shed             0.19       0.00       0.01       0.11       0.07        0.01     0.09   0.392
  TT14-274A_shed             0.19       0.00       0.02       0.03       0.14        0.01     0.10   0.748
  TT14-274B_shed             0.19       0.00       0.02       0.07       0.10        0.03     0.39   0.527
  TT14-274C_shed             0.19       0.00       0.02       0.07       0.10        0.05     0.60   0.536
  TT14-278A_shed             0.19       0.00       0.02       0.06       0.11        0.02     0.23   0.589
  TT14-278B_shed             0.19       0.00       0.02       0.08       0.10        0.03     0.43   0.507
  TT14-278C_shed             0.19       0.00       0.02       0.03       0.14        0.01     0.13   0.715
  TT14-280A_shed             0.19       0.00       0.02       0.07       0.10        0.01     0.07   0.544
  TT14-282A_shed             0.19       0.00       0.02       0.07       0.11        0.11     1.49   0.553
  TT14-284A_shed             0.19       0.00       0.02       0.08       0.10        0.01     0.10   0.522
  TT14-284B_shed             0.19       0.00       0.02       0.06       0.12        0.00     0.02   0.608
  TT14-284C_shed             0.19       0.00       0.02       0.03       0.14        0.00     0.05   0.748
  TT14-286A_shed             0.19       0.00       0.02       0.04       0.13        0.01     0.12   0.682
  TT14-288A_shed             0.19       0.00       0.02       0.03       0.14        0.00     0.02   0.726
  TT14-288B_shed             0.19       0.00       0.02       0.06       0.12        0.02     0.27   0.618
  TT14-288C_shed             0.19       0.00       0.01       0.10       0.08        0.01     0.09   0.405
  TT14-291A_shed             0.19       0.00       0.02       0.08       0.10        0.05     0.63   0.515
  TT14-291B_shed             0.19       0.00       0.02       0.07       0.11        0.02     0.21   0.572
  TT14-291C_shed             0.19       0.00       0.03       0.01       0.15        0.00     0.03   0.779
  TT14-291D_shed             0.19       0.00       0.01       0.14       0.04        0.10     1.25   0.218
  TT14-294A_shed             0.19       0.00       0.02       0.08       0.10        0.01     0.07   0.525
  TT14-294B_shed             0.19       0.00       0.02       0.07       0.11        0.00     0.03   0.554
  TT14-294C_shed             0.19       0.00       0.01       0.09       0.09        0.03     0.43   0.448
  TT14-296A_shed             0.19       0.00       0.02       0.03       0.14        0.00     0.05   0.716
  TT14-296B_shed             0.19       0.00       0.02       0.09       0.09        0.45     5.86   0.462
  TT14-502_shed              0.19       0.00       0.01       0.12       0.06        0.18     2.39   0.313
  TT14-524_shed              0.19       0.00       0.02       0.06       0.11        0.25     3.31   0.572
  TT14-530_shed              0.19       0.00       0.02       0.05       0.12        0.29     3.83   0.628
  TT14-544_shed              0.19       0.00       0.02       0.06       0.11        0.10     1.25   0.594
  TT14-552A_shed             0.19       0.00       0.02       0.06       0.11        0.14     1.89   0.579
  TT14_552B_shed             0.19       0.00       0.02       0.08       0.09        0.26     3.43   0.479
  TT14-554_shed              0.19       0.00       0.02       0.07       0.10        0.04     0.46   0.541
  TT14-558_shed              0.19       0.00       0.02       0.07       0.10        0.34     4.42   0.539
  TT14-560_shed              0.19       0.00       0.02       0.07       0.10        0.08     1.05   0.530
  TT14_574_shed              0.19       0.00       0.01       0.09       0.08        0.33     4.36   0.427
  TT14-584_shed              0.19       0.00       0.02       0.08       0.09        0.35     4.67   0.477
  TT14-602A_shed             0.19       0.00       0.02       0.03       0.14        0.01     0.09   0.733
  TT14-602B_shed             0.19       0.00       0.01       0.11       0.07        0.01     0.16   0.383
  TT14-602C_shed             0.19       0.00       0.01       0.11       0.07        0.07     0.92   0.371
  TT14-602D_shed             0.19       0.00       0.01       0.08       0.09        0.01     0.13   0.487
  TT14-606A_shed             0.19       0.00       0.02       0.07       0.10        0.01     0.11   0.545
  TT14-606B_shed             0.19       0.00       0.02       0.07       0.11        0.02     0.20   0.555
  TT14-610A_shed             0.19       0.00       0.02       0.06       0.11        0.00     0.02   0.583
  TT14-610B_shed             0.19       0.00       0.02       0.06       0.12        0.00     0.03   0.624
  TT14-610C_shed             0.19       0.00       0.01       0.10       0.08        0.12     1.53   0.422
  TT14-610D_shed             0.19       0.00       0.01       0.10       0.08        0.01     0.10   0.432
  TT14-612A_shed             0.19       0.00       0.01       0.09       0.09        0.01     0.08   0.475
  TT14-612B_shed             0.19       0.00       0.02       0.07       0.10        0.00     0.03   0.533
  TT14-612C_shed             0.19       0.00       0.02       0.06       0.11        0.02     0.23   0.585
  TT14-614A_shed             0.19       0.00       0.01       0.10       0.08        0.01     0.07   0.427
  TT14-614B_shed             0.19       0.00       0.02       0.07       0.11        0.00     0.03   0.574
  TT14-614C_shed             0.19       0.00       0.02       0.05       0.12        0.01     0.18   0.623
  TT14-616A_shed             0.19       0.00       0.02       0.07       0.11        0.01     0.09   0.573
  TT14-616B_shed             0.19       0.00       0.02       0.06       0.11        0.01     0.15   0.575
  TT14-618A_shed             0.19       0.00       0.02       0.06       0.11        0.04     0.55   0.574
  TT14-620A_shed             0.19       0.00       0.02       0.07       0.11        0.01     0.13   0.559
  TT14-620B_shed             0.19       0.00       0.01       0.09       0.08        0.21     2.71   0.431
  TT14-622A_shed             0.19       0.00       0.02       0.07       0.11        0.01     0.16   0.555
  TT14-624A_shed             0.19       0.00       0.02       0.07       0.11        0.01     0.13   0.559
  TT14-630A_shed             0.19       0.00       0.01       0.09       0.09        0.02     0.23   0.452
  TT14-636A_shed             0.19       0.00       0.02       0.06       0.11        0.00     0.04   0.584
  TT14-636B_shed             0.19       0.00       0.01       0.09       0.09        0.01     0.18   0.466
  TT14-639A_shed             0.19       0.00       0.02       0.07       0.11        0.01     0.07   0.566
  TT14-639B_shed             0.19       0.00       0.01       0.10       0.07        0.02     0.26   0.392
  TT14-639C_shed             0.19       0.00       0.01       0.10       0.08        0.02     0.29   0.419
  TT14-640A_shed             0.19       0.00       0.01       0.11       0.07        0.01     0.09   0.382
  TT14-642A_shed             0.19       0.00       0.01       0.13       0.06        0.04     0.47   0.294
  TT14-642B_shed             0.19       0.00       0.01       0.08       0.10        0.01     0.07   0.509
  TT14-642C_shed             0.19       0.00       0.01       0.10       0.08        0.01     0.18   0.397
  TT14-644A_shed             0.19       0.00       0.01       0.12       0.06        0.01     0.07   0.321
  TT14_646A_shed             0.19       0.00       0.01       0.09       0.09        0.17     2.25   0.451
  TT14-648A_shed             0.19       0.00       0.01       0.11       0.07        0.09     1.16   0.358
  TT14-648B_shed             0.19       0.00       0.01       0.09       0.09        0.01     0.11   0.481
  TT14-658A_shed             0.19       0.00       0.01       0.11       0.07        0.04     0.57   0.382
  TT14-658B_shed             0.19       0.00       0.01       0.09       0.09        0.02     0.30   0.459
  TT14-660A_shed             0.19       0.00       0.01       0.10       0.08        0.01     0.09   0.397
  TT14-666A_shed             0.19       0.00       0.01       0.08       0.10        0.02     0.23   0.501
  TT14-668A_shed             0.19       0.00       0.01       0.12       0.06        0.01     0.09   0.333
  TT14-676A_shed             0.19       0.00       0.01       0.10       0.08        0.01     0.11   0.408
  TT14-684A_shed             0.19       0.00       0.01       0.11       0.07        0.01     0.08   0.390
  TT14-684B_shed             0.19       0.00       0.01       0.08       0.10        0.00     0.04   0.510
  TT14-688A_shed             0.19       0.00       0.01       0.09       0.09        0.00     0.05   0.449
  TT14-688B_shed             0.19       0.00       0.02       0.06       0.11        0.00     0.03   0.593
  TT14-688C_shed             0.19       0.00       0.02       0.07       0.10        0.01     0.12   0.538
  TT14-690A_shed             0.19       0.00       0.01       0.09       0.09        0.01     0.15   0.448
  TT14-690B_shed             0.19       0.00       0.01       0.10       0.08        0.00     0.03   0.414
  TT14-692A_shed             0.19       0.00       0.01       0.10       0.08        0.01     0.16   0.407
  TT14-702_shed              0.19       0.00       0.02       0.06       0.11        0.13     1.75   0.585
  TT14-706_shed              0.19       0.00       0.02       0.08       0.09        0.15     1.94   0.475
  TT14-708_shed              0.19       0.00       0.01       0.10       0.08        0.17     2.25   0.403
  TT14_720_shed              0.19       0.00       0.02       0.08       0.09        0.34     4.42   0.492
  TT14-736_shed              0.19       0.00       0.02       0.09       0.09        0.20     2.61   0.461
  TT14-740_shed              0.19       0.00       0.01       0.09       0.08        0.11     1.48   0.433
  TT14-746_shed              0.19       0.00       0.01       0.12       0.06        0.09     1.19   0.339
  
  
  ******************
  Node Depth Summary
  ******************
  
  ---------------------------------------------------------------------------------
                                 Average  Maximum  Maximum  Time of Max    Reported
                                   Depth    Depth      HGL   Occurrence   Max Depth
  Node                 Type         Feet     Feet     Feet  days hr:min        Feet
  ---------------------------------------------------------------------------------
  TT14-006             JUNCTION     0.02     1.07    28.58     4  06:30        1.07
  TT14-044             JUNCTION     0.04     2.19    44.57     4  06:19        2.18
  TT14-030             JUNCTION     0.02     1.11    37.63     4  06:25        1.11
  TT14-904             JUNCTION     0.01     0.73    44.31     4  05:42        0.73
  TT14-048             JUNCTION     0.02     1.06    45.58     4  06:17        1.06
  TT14-058             JUNCTION     0.03     1.83    51.40     4  06:11        1.82
  TT14-068             JUNCTION     0.03     1.39    54.83     4  06:11        1.38
  TT14-106             JUNCTION     0.01     0.68    54.51     4  06:15        0.68
  TT14-076             JUNCTION     0.03     1.83    59.40     4  06:09        1.83
  TT14-092             JUNCTION     0.03     1.58    69.74     4  06:08        1.58
  TT14-112             JUNCTION     0.01     0.60    68.68     4  06:10        0.60
  TT14-202             JUNCTION     0.01     0.47    72.90     4  06:10        0.46
  TT14-406             JUNCTION     0.00     0.22    78.05     4  06:01        0.22
  TT14-418             JUNCTION     0.00     0.24    86.96     4  06:00        0.24
  TT14-306             JUNCTION     5.84    10.75    79.95     4  06:00       10.75
  TT14-312             JUNCTION     0.01     0.30    90.16     4  06:00        0.30
  TT14-222             JUNCTION     0.01     0.84    83.54     4  06:09        0.83
  TT14-228             JUNCTION     0.01     0.81    88.81     4  06:08        0.81
  TT14-502             JUNCTION     2.02     3.72    96.33     4  06:05        3.71
  TT14-524             JUNCTION     0.02     1.32   125.94     4  06:03        1.31
  TT14-240             JUNCTION     0.01     0.37   120.01     4  06:05        0.37
  TT14-243             JUNCTION     0.01     0.36   128.91     4  06:03        0.36
  TT14-248             JUNCTION     0.01     0.33   141.84     4  06:03        0.33
  TT14-546             JUNCTION     0.02     1.03   160.50     4  06:02        1.03
  TT14-530             JUNCTION     0.02     1.18   135.89     4  06:02        1.17
  TT14-262             JUNCTION     0.04     2.34   163.34     4  06:02        2.34
  TT14-814             JUNCTION     0.00     0.30   173.18     4  06:02        0.30
  TT14-263             JUNCTION     0.02     1.01   170.20     4  06:01        1.01
  TT14-828             JUNCTION     0.00     0.29   199.72     4  06:01        0.29
  TT14-834             JUNCTION     0.00     0.20   218.12     4  06:00        0.20
  TT14-264             JUNCTION     0.02     1.04   181.20     4  06:01        1.04
  TT14-268             JUNCTION     0.02     0.99   192.53     4  06:01        0.99
  TT14-554             JUNCTION     0.02     1.06   172.76     4  06:01        1.05
  TT14-560             JUNCTION     0.02     0.99   186.59     4  06:01        0.98
  TT14-574             JUNCTION     0.02     0.95   199.57     4  06:01        0.95
  TT14-582             JUNCTION     0.02     0.98   205.50     4  06:01        0.98
  TT14-275             JUNCTION     0.02     1.00   201.39     4  06:01        1.00
  TT14-280             JUNCTION     0.02     0.99   209.47     4  06:00        0.99
  TT14-286             JUNCTION     0.02     0.96   215.25     4  06:01        0.96
  TT14-291             JUNCTION     0.02     0.94   223.34     4  06:00        0.94
  TT14-296             JUNCTION     0.02     0.98   229.46     4  06:00        0.98
  TT14-606             JUNCTION     0.01     0.35   233.25     4  06:01        0.35
  TT14-746             JUNCTION     0.00     0.27   319.31     4  06:00        0.27
  TT14-738             JUNCTION     0.00     0.20   303.91     4  06:00        0.20
  TT14-716             JUNCTION     0.00     0.30   269.11     4  06:00        0.30
  TT14-708             JUNCTION     0.00     0.32   260.82     4  06:00        0.32
  TT14-702             JUNCTION     0.01     0.67   249.57     4  06:01        0.67
  TT14-612             JUNCTION     0.01     0.77   243.30     4  06:00        0.77
  TT14-616             JUNCTION     0.01     0.64   246.56     4  06:00        0.64
  TT14-622             JUNCTION     0.01     0.61   251.95     4  06:00        0.61
  TT14-636             JUNCTION     0.00     0.23   261.07     4  06:00        0.23
  TT14-639             JUNCTION     0.01     0.65   264.34     4  06:00        0.65
  TT14-642             JUNCTION     0.01     0.54   268.96     4  06:00        0.54
  TT14-646             JUNCTION     0.01     0.50   274.94     4  06:00        0.50
  TT14-660             JUNCTION     0.00     0.27   306.50     4  06:00        0.27
  TT14-666             JUNCTION     0.00     0.26   311.26     4  06:00        0.26
  TT14-676             JUNCTION     0.00     0.26   316.26     4  06:00        0.26
  TT14-688             JUNCTION     0.00     0.25   321.25     4  06:00        0.25
  TT14-692             JUNCTION     0.00     0.14   326.14     4  06:00        0.14
  TT14-848             JUNCTION     0.01     0.31   244.50     4  06:00        0.31
  TT14-016             JUNCTION     0.02     1.23    30.19     4  06:29        1.23
  T14_1_1090           JUNCTION     0.03     1.80    38.74     4  06:21        1.79
  T14_1_1160           JUNCTION     0.04     2.24    39.97     4  06:19        2.24
  T14_1_1440_west_split JUNCTION     0.01     0.59    48.26     4  06:19        0.59
  T14_1_2390_east      JUNCTION     0.02     1.29    69.93     4  06:07        1.28
  T14_1_2410           JUNCTION     0.01     0.81    70.03     4  06:03        0.81
  T14_1_1520_west      JUNCTION     0.01     0.72    69.20     4  06:06        0.71
  T14_2_230            JUNCTION     0.01     0.49   113.39     4  06:05        0.49
  T14_2_2040           JUNCTION     0.00     0.22   273.60     4  06:04        0.22
  T14_2_2070           JUNCTION     0.01     0.70   274.44     4  06:03        0.70
  T14_2_2120           JUNCTION     0.00     0.21   276.60     4  06:01        0.21
  T14_2_2530           JUNCTION     0.00     0.09   310.39     4  06:00        0.09
  T14_3_640            JUNCTION     0.01     0.32   160.22     4  06:03        0.32
  T14_3_3_10           JUNCTION     0.02     0.96   167.78     4  06:05        0.96
  T14_3_1340           JUNCTION     0.01     0.39   237.90     4  06:01        0.39
  outfall              OUTFALL      0.01     1.07    25.07     4  06:31        1.07
  
  
  *******************
  Node Inflow Summary
  *******************
  
  -------------------------------------------------------------------------------------------------
                                  Maximum  Maximum                  Lateral       Total        Flow
                                  Lateral    Total  Time of Max      Inflow      Inflow     Balance
                                   Inflow   Inflow   Occurrence      Volume      Volume       Error
  Node                 Type           CFS      CFS  days hr:min    10^6 gal    10^6 gal     Percent
  -------------------------------------------------------------------------------------------------
  TT14-006             JUNCTION      3.58   163.86     4  06:29       0.271          13       0.000
  TT14-044             JUNCTION      3.91   147.34     4  06:17       0.298        11.2      -0.012
  TT14-030             JUNCTION      3.21   159.58     4  06:21       0.243        12.4       0.008
  TT14-904             JUNCTION     11.57    11.57     4  06:00       0.926       0.926      -0.149
  TT14-048             JUNCTION      4.47   144.28     4  06:15        0.34        10.9       0.013
  TT14-058             JUNCTION      3.00    82.17     4  06:10       0.228         6.1      -0.026
  TT14-068             JUNCTION      1.90    79.67     4  06:09       0.144        5.87       0.001
  TT14-106             JUNCTION      2.38    59.94     4  06:10        0.18        4.49       0.006
  TT14-076             JUNCTION      8.09    78.29     4  06:06       0.619        5.72      -0.026
  TT14-092             JUNCTION      0.08    71.11     4  06:05     0.00657         5.1       0.030
  TT14-112             JUNCTION      0.90    58.19     4  06:07      0.0683        4.31      -0.009
  TT14-202             JUNCTION      2.75   105.97     4  06:09       0.208        7.87      -0.002
  TT14-406             JUNCTION      0.36     4.41     4  06:00      0.0273       0.336      -0.012
  TT14-418             JUNCTION      4.07     4.07     4  06:00       0.309       0.309      -0.017
  TT14-306             JUNCTION      7.11    19.27     4  06:00       0.544        1.48      30.194
  TT14-312             JUNCTION     12.18    12.18     4  06:00       0.936       0.936      -0.260
  TT14-222             JUNCTION      2.96   103.67     4  06:07       0.224        7.66       0.006
  TT14-228             JUNCTION      2.26   101.44     4  06:04       0.172        7.44      -0.006
  TT14-502             JUNCTION      2.39    45.66     4  06:04       0.182        3.55      14.186
  TT14-524             JUNCTION      3.31    43.55     4  06:01       0.251        3.36      -0.007
  TT14-240             JUNCTION      1.03    53.82     4  06:02      0.0783        4.16       0.001
  TT14-243             JUNCTION      2.95    52.88     4  06:01       0.224        4.08      -0.019
  TT14-248             JUNCTION      1.83    50.06     4  06:02       0.139        3.86       0.001
  TT14-546             JUNCTION      1.25    36.67     4  06:01      0.0953        2.82       0.003
  TT14-530             JUNCTION      3.83    40.38     4  06:01       0.291        3.11       0.004
  TT14-262             JUNCTION      6.86    48.44     4  06:00        0.52        3.72       0.006
  TT14-814             JUNCTION      1.90    10.02     4  06:00       0.144       0.764       0.003
  TT14-263             JUNCTION      0.34    31.74     4  06:01      0.0264        2.44      -0.003
  TT14-828             JUNCTION      2.20     8.18     4  06:00       0.167       0.621       0.000
  TT14-834             JUNCTION      4.03     5.99     4  06:00       0.305       0.454      -0.017
  TT14-264             JUNCTION      2.66    31.42     4  06:00       0.203        2.41      -0.011
  TT14-268             JUNCTION      0.47    28.80     4  06:00      0.0364        2.21       0.012
  TT14-554             JUNCTION      5.78    35.48     4  06:00       0.439        2.73      -0.012
  TT14-560             JUNCTION      5.47    29.80     4  06:00       0.418        2.29       0.003
  TT14-574             JUNCTION      4.36    24.41     4  06:00       0.331        1.87      -0.003
  TT14-582             JUNCTION      4.67    20.16     4  06:00       0.354        1.54       0.015
  TT14-275             JUNCTION      1.44    28.34     4  06:00        0.11        2.17      -0.011
  TT14-280             JUNCTION      2.35    26.93     4  06:00       0.179        2.06      -0.002
  TT14-286             JUNCTION      0.79    24.60     4  06:00      0.0609        1.88       0.006
  TT14-291             JUNCTION      2.12    23.83     4  06:00       0.162        1.82      -0.005
  TT14-296             JUNCTION      7.72    21.74     4  06:00       0.588        1.66      -0.002
  TT14-606             JUNCTION      0.30    14.02     4  06:00      0.0234        1.07      -0.004
  TT14-746             JUNCTION      1.19     1.19     4  06:00      0.0901      0.0901      -0.009
  TT14-738             JUNCTION      4.09     5.28     4  06:00        0.31         0.4      -0.024
  TT14-716             JUNCTION      4.42     9.66     4  06:00       0.336       0.736      -0.007
  TT14-708             JUNCTION      4.20    13.83     4  06:00       0.318        1.05      -0.007
  TT14-702             JUNCTION      1.75    15.55     4  06:00       0.132        1.19      -0.012
  TT14-612             JUNCTION      2.03    13.73     4  06:00       0.155        1.05      -0.004
  TT14-616             JUNCTION      0.52    11.70     4  06:00      0.0403       0.894       0.002
  TT14-622             JUNCTION      3.91    11.18     4  06:00       0.297       0.854      -0.002
  TT14-636             JUNCTION      0.22     7.28     4  06:00      0.0169       0.557      -0.005
  TT14-639             JUNCTION      0.61     7.06     4  06:00      0.0469        0.54      -0.005
  TT14-642             JUNCTION      0.88     6.45     4  06:00      0.0678       0.493      -0.001
  TT14-646             JUNCTION      3.53     5.57     4  06:00       0.268       0.425       0.005
  TT14-660             JUNCTION      0.95     2.04     4  06:00      0.0731       0.157      -0.028
  TT14-666             JUNCTION      0.32     1.09     4  06:00      0.0245      0.0838       0.021
  TT14-676             JUNCTION      0.11     0.77     4  06:00     0.00839      0.0594       0.079
  TT14-688             JUNCTION      0.32     0.66     4  06:00      0.0247      0.0509      -0.085
  TT14-692             JUNCTION      0.34     0.34     4  06:00      0.0262      0.0262      -0.024
  TT14-848             JUNCTION      1.96     1.96     4  06:00       0.149       0.149      -0.010
  TT14-016             JUNCTION      3.85   161.78     4  06:25       0.292        12.7       0.002
  T14_1_1090           JUNCTION      0.00   147.33     4  06:20           0        11.2       0.009
  T14_1_1160           JUNCTION      0.00   147.18     4  06:19           0        11.2       0.001
  T14_1_1440_west_split JUNCTION      0.00    59.31     4  06:16           0        4.49       0.003
  T14_1_2390_east      JUNCTION      0.00    71.25     4  06:03           0         5.1      -0.002
  T14_1_2410           JUNCTION      0.00   123.93     4  06:05           0        9.01      -0.002
  T14_1_1520_west      JUNCTION      0.00    57.30     4  06:06           0        4.24      -0.004
  T14_2_230            JUNCTION      0.00    43.52     4  06:03           0        3.36       0.006
  T14_2_2040           JUNCTION      0.00     5.25     4  06:03           0         0.4      -0.004
  T14_2_2070           JUNCTION      0.00     5.26     4  06:01           0         0.4      -0.006
  T14_2_2120           JUNCTION      0.00     5.27     4  06:00           0         0.4      -0.002
  T14_2_2530           JUNCTION      0.00     1.19     4  06:00           0      0.0901      -0.047
  T14_3_640            JUNCTION      0.00    48.32     4  06:02           0        3.72      -0.008
  T14_3_3_10           JUNCTION      0.00     9.96     4  06:02           0       0.764      -0.002
  T14_3_1340           JUNCTION      0.00    13.72     4  06:00           0        1.05      -0.003
  outfall              OUTFALL       0.00   163.78     4  06:31           0          13       0.000
  
  
  **********************
  Node Surcharge Summary
  **********************
  
  No nodes were surcharged.
  
  
  *********************
  Node Flooding Summary
  *********************
  
  No nodes were flooded.
  
  
  ***********************
  Outfall Loading Summary
  ***********************
  
  -----------------------------------------------------------
                         Flow       Avg       Max       Total
                         Freq      Flow      Flow      Volume
  Outfall Node           Pcnt       CFS       CFS    10^6 gal
  -----------------------------------------------------------
  outfall               24.94      8.04    163.78      12.954
  -----------------------------------------------------------
  System                24.94      8.04    163.78      12.954
  
  
  ********************
  Link Flow Summary
  ********************
  
  -----------------------------------------------------------------------------
                                 Maximum  Time of Max   Maximum    Max/    Max/
                                  |Flow|   Occurrence   |Veloc|    Full    Full
  Link                 Type          CFS  days hr:min    ft/sec    Flow   Depth
  -----------------------------------------------------------------------------
  C1                   CONDUIT    161.30     4  06:29      5.84    0.02    0.05
  C2                   CONDUIT    158.96     4  06:25      5.67    0.02    0.06
  C3                   CONDUIT     11.55     4  06:00      6.86    0.02    0.13
  C4                   CONDUIT    147.30     4  06:22      4.60    0.04    0.08
  C5                   CONDUIT    147.33     4  06:20      9.08    0.02    0.11
  C6                   CONDUIT    147.18     4  06:19      7.95    0.03    0.12
  C7                   CONDUIT    144.20     4  06:17      4.23    0.02    0.09
  C8                   CONDUIT     59.10     4  06:20      4.21    0.01    0.06
  C9                   CONDUIT     59.31     4  06:16      4.46    0.02    0.05
  C10                  CONDUIT     57.90     4  06:10      5.62    0.01    0.04
  C11                  CONDUIT     78.06     4  06:10      7.38    0.02    0.10
  C12                  CONDUIT     70.95     4  06:08      6.61    0.03    0.12
  C13                  CONDUIT     82.24     4  06:12      8.75    0.02    0.08
  C14                  CONDUIT     79.61     4  06:11      7.20    0.01    0.09
  C15                  CONDUIT     71.03     4  06:05      3.54    0.03    0.10
  C16                  CONDUIT     19.22     4  06:01      9.14    0.01    0.09
  C17                  CONDUIT     66.87     4  06:04      5.55    0.07    0.18
  C18                  CONDUIT     57.30     4  06:06      8.16    0.06    0.13
  C19                  CONDUIT     57.41     4  06:07      5.45    0.01    0.05
  C20                  CONDUIT    105.94     4  06:10      9.78    0.01    0.04
  C21                  CONDUIT     12.17     4  06:00      1.22    0.00    0.52
  C22                  CONDUIT      4.40     4  06:01      2.75    0.01    0.13
  C23                  CONDUIT      4.06     4  06:00      3.49    0.01    0.04
  C24                  CONDUIT    103.58     4  06:09      7.95    0.01    0.04
  C25                  CONDUIT    101.06     4  06:08      7.21    0.01    0.05
  C26                  CONDUIT     45.63     4  06:05      5.06    0.00    0.04
  C27                  CONDUIT     43.46     4  06:05      1.72    0.01    0.22
  C28                  CONDUIT     43.52     4  06:03     12.29    0.02    0.09
  C29                  CONDUIT     40.33     4  06:03      7.35    0.03    0.13
  C30                  CONDUIT     36.63     4  06:02      8.23    0.03    0.12
  C31                  CONDUIT     35.44     4  06:01      8.91    0.03    0.12
  C32                  CONDUIT     29.74     4  06:01      7.71    0.03    0.12
  C33                  CONDUIT     24.36     4  06:01      6.82    0.03    0.11
  C34                  CONDUIT     20.07     4  06:01      5.65    0.03    0.11
  C35                  CONDUIT     15.51     4  06:01      5.50    0.01    0.10
  C36                  CONDUIT     13.81     4  06:00      3.72    0.01    0.06
  C37                  CONDUIT      9.64     4  06:00      4.09    0.01    0.04
  C38                  CONDUIT      5.25     4  06:04      2.68    0.01    0.04
  C39                  CONDUIT      5.25     4  06:03      5.24    0.01    0.08
  C40                  CONDUIT      5.26     4  06:01      1.92    0.01    0.08
  C41                  CONDUIT      5.27     4  06:00      4.24    0.01    0.03
  C42                  CONDUIT      1.18     4  06:00      1.61    0.00    0.02
  C43                  CONDUIT      1.19     4  06:00      5.17    0.00    0.04
  C44                  CONDUIT     53.74     4  06:05      4.89    0.00    0.05
  C45                  CONDUIT     52.85     4  06:03      6.70    0.00    0.03
  C46                  CONDUIT     50.04     4  06:03      6.73    0.00    0.03
  C47                  CONDUIT     48.31     4  06:03      6.89    0.00    0.03
  C48                  CONDUIT     48.32     4  06:02      7.02    0.07    0.11
  C49                  CONDUIT      9.93     4  06:05      3.60    0.04    0.12
  C50                  CONDUIT      9.96     4  06:02      1.97    0.01    0.09
  C51                  CONDUIT      8.12     4  06:01      3.68    0.01    0.05
  C52                  CONDUIT      5.98     4  06:00      4.06    0.01    0.04
  C53                  CONDUIT      1.96     4  06:00      5.05    0.01    0.05
  C54                  CONDUIT     31.73     4  06:02      3.88    0.03    0.19
  C55                  CONDUIT     31.41     4  06:01      8.08    0.03    0.12
  C56                  CONDUIT     28.79     4  06:01      7.54    0.03    0.12
  C57                  CONDUIT     28.33     4  06:01      7.62    0.03    0.12
  C58                  CONDUIT     26.91     4  06:00      7.37    0.03    0.12
  C59                  CONDUIT     24.59     4  06:01      6.94    0.03    0.12
  C60                  CONDUIT     23.81     4  06:00      6.97    0.03    0.11
  C61                  CONDUIT     21.71     4  06:00      6.23    0.03    0.12
  C62                  CONDUIT     14.02     4  06:01      2.35    0.01    0.07
  C63                  CONDUIT     13.72     4  06:01      4.69    0.01    0.03
  C64                  CONDUIT     13.72     4  06:00      8.75    0.02    0.08
  C65                  CONDUIT     11.70     4  06:00      5.54    0.02    0.09
  C66                  CONDUIT     11.18     4  06:00      6.33    0.01    0.08
  C67                  CONDUIT      7.27     4  06:00      4.48    0.00    0.02
  C68                  CONDUIT      7.06     4  06:00      6.94    0.01    0.06
  C69                  CONDUIT      6.45     4  06:00      4.44    0.02    0.10
  C70                  CONDUIT      5.57     4  06:00      4.65    0.01    0.09
  C71                  CONDUIT      2.04     4  06:00      3.28    0.01    0.10
  C72                  CONDUIT      1.09     4  06:00      3.23    0.01    0.08
  C73                  CONDUIT      0.77     4  06:00      2.38    0.01    0.07
  C74                  CONDUIT      0.66     4  06:00      2.17    0.01    0.07
  C75                  CONDUIT      0.34     4  06:00      1.79    0.00    0.06
  outflow              CONDUIT    163.78     4  06:31      6.40    0.02    0.05
  
  
  ***************************
  Flow Classification Summary
  ***************************
  
  -------------------------------------------------------------------------------------
                      Adjusted    ---------- Fraction of Time in Flow Class ---------- 
                       /Actual         Up    Down  Sub   Sup   Up    Down  Norm  Inlet 
  Conduit               Length    Dry  Dry   Dry   Crit  Crit  Crit  Crit  Ltd   Ctrl  
  -------------------------------------------------------------------------------------
  C1                      1.00   0.41  0.00  0.00  0.59  0.00  0.00  0.00  0.57  0.00
[...]
  JUL-16-2008 18:45:00      0.001     0.000     0.000    24.000
  JUL-16-2008 19:00:00      0.001     0.000     0.000    24.000
  JUL-16-2008 19:15:00      0.001     0.000     0.000    24.000
  JUL-16-2008 19:30:00      0.001     0.000     0.000    24.000
  JUL-16-2008 19:45:00      0.001     0.000     0.000    24.000
  JUL-16-2008 20:00:00      0.001     0.000     0.000    24.000
  JUL-16-2008 20:15:00      0.001     0.000     0.000    24.000
  JUL-16-2008 20:30:00      0.001     0.000     0.000    24.000
  JUL-16-2008 20:45:00      0.001     0.000     0.000    24.000
  JUL-16-2008 21:00:00      0.001     0.000     0.000    24.000
  JUL-16-2008 21:15:00      0.001     0.000     0.000    24.000
  JUL-16-2008 21:30:00      0.001     0.000     0.000    24.000
  JUL-16-2008 21:45:00      0.001     0.000     0.000    24.000
  JUL-16-2008 22:00:00      0.001     0.000     0.000    24.000
  JUL-16-2008 22:15:00      0.001     0.000     0.000    24.000
  JUL-16-2008 22:30:00      0.001     0.000     0.000    24.000
  JUL-16-2008 22:45:00      0.001     0.000     0.000    24.000
  JUL-16-2008 23:00:00      0.001     0.000     0.000    24.000
  JUL-16-2008 23:15:00      0.001     0.000     0.000    24.000
  JUL-16-2008 23:30:00      0.001     0.000     0.000    24.000
  JUL-16-2008 23:45:00      0.001     0.000     0.000    24.000
  JUL-17-2008 00:00:00      0.001     0.000     0.000    24.000
  JUL-17-2008 00:15:00      0.001     0.000     0.000    24.000
  JUL-17-2008 00:30:00      0.001     0.000     0.000    24.000
  JUL-17-2008 00:45:00      0.001     0.000     0.000    24.000
  JUL-17-2008 01:00:00      0.001     0.000     0.000    24.000
  JUL-17-2008 01:15:00      0.001     0.000     0.000    24.000
  JUL-17-2008 01:30:00      0.001     0.000     0.000    24.000
  JUL-17-2008 01:45:00      0.001     0.000     0.000    24.000
  JUL-17-2008 02:00:00      0.001     0.000     0.000    24.000
  JUL-17-2008 02:15:00      0.000     0.000     0.000    24.000
  JUL-17-2008 02:30:00      0.000     0.000     0.000    24.000
  JUL-17-2008 02:45:00      0.000     0.000     0.000    24.000
  JUL-17-2008 03:00:00      0.000     0.000     0.000    24.000
  JUL-17-2008 03:15:00      0.000     0.000     0.000    24.000
  JUL-17-2008 03:30:00      0.000     0.000     0.000    24.000
  JUL-17-2008 03:45:00      0.000     0.000     0.000    24.000
  JUL-17-2008 04:00:00      0.000     0.000     0.000    24.000
  JUL-17-2008 04:15:00      0.000     0.000     0.000    24.000
  JUL-17-2008 04:30:00      0.000     0.000     0.000    24.000
  JUL-17-2008 04:45:00      0.000     0.000     0.000    24.000
  JUL-17-2008 05:00:00      0.000     0.000     0.000    24.000
  JUL-17-2008 05:15:00      0.000     0.000     0.000    24.000
  JUL-17-2008 05:30:00      0.000     0.000     0.000    24.000
  JUL-17-2008 05:45:00      0.000     0.000     0.000    24.000
  JUL-17-2008 06:00:00      0.000     0.000     0.000    24.000
  JUL-17-2008 06:15:00      0.000     0.000     0.000    24.000
  JUL-17-2008 06:30:00      0.000     0.000     0.000    24.000
  JUL-17-2008 06:45:00      0.000     0.000     0.000    24.000
  JUL-17-2008 07:00:00      0.000     0.000     0.000    24.000
  JUL-17-2008 07:15:00      0.000     0.000     0.000    24.000
  JUL-17-2008 07:30:00      0.000     0.000     0.000    24.000
  JUL-17-2008 07:45:00      0.000     0.000     0.000    24.000
  JUL-17-2008 08:00:00      0.000     0.000     0.000    24.000
  JUL-17-2008 08:15:00      0.000     0.000     0.000    24.000
  JUL-17-2008 08:30:00      0.000     0.000     0.000    24.000
  JUL-17-2008 08:45:00      0.000     0.000     0.000    24.000
  JUL-17-2008 09:00:00      0.000     0.000     0.000    24.000
  JUL-17-2008 09:15:00      0.000     0.000     0.000    24.000
  JUL-17-2008 09:30:00      0.000     0.000     0.000    24.000
  JUL-17-2008 09:45:00      0.000     0.000     0.000    24.000
  JUL-17-2008 10:00:00      0.000     0.000     0.000    24.000
  JUL-17-2008 10:15:00      0.000     0.000     0.000    24.000
  JUL-17-2008 10:30:00      0.000     0.000     0.000    24.000
  JUL-17-2008 10:45:00      0.000     0.000     0.000    24.000
  JUL-17-2008 11:00:00      0.000     0.000     0.000    24.000
  JUL-17-2008 11:15:00      0.000     0.000     0.000    24.000
  JUL-17-2008 11:30:00      0.000     0.000     0.000    24.000
  JUL-17-2008 11:45:00      0.000     0.000     0.000    24.000
  JUL-17-2008 12:00:00      0.000     0.000     0.000    24.000
  JUL-17-2008 12:15:00      0.000     0.000     0.000    24.000
  JUL-17-2008 12:30:00      0.000     0.000     0.000    24.000
  JUL-17-2008 12:45:00      0.000     0.000     0.000    24.000
  JUL-17-2008 13:00:00      0.000     0.000     0.000    24.000
  JUL-17-2008 13:15:00      0.000     0.000     0.000    24.000
  JUL-17-2008 13:30:00      0.000     0.000     0.000    24.000
  JUL-17-2008 13:45:00      0.000     0.000     0.000    24.000
  JUL-17-2008 14:00:00      0.000     0.000     0.000    24.000
  JUL-17-2008 14:15:00      0.000     0.000     0.000    24.000
  JUL-17-2008 14:30:00      0.000     0.000     0.000    24.000
  JUL-17-2008 14:45:00      0.000     0.000     0.000    24.000
  JUL-17-2008 15:00:00      0.000     0.000     0.000    24.000
  JUL-17-2008 15:15:00      0.000     0.000     0.000    24.000
  JUL-17-2008 15:30:00      0.000     0.000     0.000    24.000
  JUL-17-2008 15:45:00      0.000     0.000     0.000    24.000
  JUL-17-2008 16:00:00      0.000     0.000     0.000    24.000
  JUL-17-2008 16:15:00      0.000     0.000     0.000    24.000
  JUL-17-2008 16:30:00      0.000     0.000     0.000    24.000
  JUL-17-2008 16:45:00      0.000     0.000     0.000    24.000
  JUL-17-2008 17:00:00      0.000     0.000     0.000    24.000
  JUL-17-2008 17:15:00      0.000     0.000     0.000    24.000
  JUL-17-2008 17:30:00      0.000     0.000     0.000    24.000
  JUL-17-2008 17:45:00      0.000     0.000     0.000    24.000
  JUL-17-2008 18:00:00      0.000     0.000     0.000    24.000
  JUL-17-2008 18:15:00      0.000     0.000     0.000    24.000
  JUL-17-2008 18:30:00      0.000     0.000     0.000    24.000
  JUL-17-2008 18:45:00      0.000     0.000     0.000    24.000
  JUL-17-2008 19:00:00      0.000     0.000     0.000    24.000
  JUL-17-2008 19:15:00      0.000     0.000     0.000    24.000
  JUL-17-2008 19:30:00      0.000     0.000     0.000    24.000
  JUL-17-2008 19:45:00      0.000     0.000     0.000    24.000
  JUL-17-2008 20:00:00      0.000     0.000     0.000    24.000
  JUL-17-2008 20:15:00      0.000     0.000     0.000    24.000
  JUL-17-2008 20:30:00      0.000     0.000     0.000    24.000
  JUL-17-2008 20:45:00      0.000     0.000     0.000    24.000
  JUL-17-2008 21:00:00      0.000     0.000     0.000    24.000
  JUL-17-2008 21:15:00      0.000     0.000     0.000    24.000
  JUL-17-2008 21:30:00      0.000     0.000     0.000    24.000
  JUL-17-2008 21:45:00      0.000     0.000     0.000    24.000
  JUL-17-2008 22:00:00      0.000     0.000     0.000    24.000
  JUL-17-2008 22:15:00      0.000     0.000     0.000    24.000
  JUL-17-2008 22:30:00      0.000     0.000     0.000    24.000
  JUL-17-2008 22:45:00      0.000     0.000     0.000    24.000
  JUL-17-2008 23:00:00      0.000     0.000     0.000    24.000
  JUL-17-2008 23:15:00      0.000     0.000     0.000    24.000
  JUL-17-2008 23:30:00      0.000     0.000     0.000    24.000
  JUL-17-2008 23:45:00      0.000     0.000     0.000    24.000
  JUL-18-2008 00:00:00      0.000     0.000     0.000    24.000
  JUL-18-2008 00:15:00      0.000     0.000     0.000    24.000
  JUL-18-2008 00:30:00      0.000     0.000     0.000    24.000
  JUL-18-2008 00:45:00      0.000     0.000     0.000    24.000
  JUL-18-2008 01:00:00      0.000     0.000     0.000    24.000
  JUL-18-2008 01:15:00      0.000     0.000     0.000    24.000
  JUL-18-2008 01:30:00      0.000     0.000     0.000    24.000
  JUL-18-2008 01:45:00      0.000     0.000     0.000    24.000
  JUL-18-2008 02:00:00      0.000     0.000     0.000    24.000
  JUL-18-2008 02:15:00      0.000     0.000     0.000    24.000
  JUL-18-2008 02:30:00      0.000     0.000     0.000    24.000
  JUL-18-2008 02:45:00      0.000     0.000     0.000    24.000
  JUL-18-2008 03:00:00      0.000     0.000     0.000    24.000
  JUL-18-2008 03:15:00      0.000     0.000     0.000    24.000
  JUL-18-2008 03:30:00      0.000     0.000     0.000    24.000
  JUL-18-2008 03:45:00      0.000     0.000     0.000    24.000
  JUL-18-2008 04:00:00      0.000     0.000     0.000    24.000
  JUL-18-2008 04:15:00      0.000     0.000     0.000    24.000
  JUL-18-2008 04:30:00      0.000     0.000     0.000    24.000
  JUL-18-2008 04:45:00      0.000     0.000     0.000    24.000
  JUL-18-2008 05:00:00      0.000     0.000     0.000    24.000
  JUL-18-2008 05:15:00      0.000     0.000     0.000    24.000
  JUL-18-2008 05:30:00      0.000     0.000     0.000    24.000
  JUL-18-2008 05:45:00      0.000     0.000     0.000    24.000
  JUL-18-2008 06:00:00      0.000     0.000     0.000    24.000
  JUL-18-2008 06:15:00      0.000     0.000     0.000    24.000
  JUL-18-2008 06:30:00      0.000     0.000     0.000    24.000
  JUL-18-2008 06:45:00      0.000     0.000     0.000    24.000
  JUL-18-2008 07:00:00      0.000     0.000     0.000    24.000
  JUL-18-2008 07:15:00      0.000     0.000     0.000    24.000
  JUL-18-2008 07:30:00      0.000     0.000     0.000    24.000
  JUL-18-2008 07:45:00      0.000     0.000     0.000    24.000
  JUL-18-2008 08:00:00      0.000     0.000     0.000    24.000
  JUL-18-2008 08:15:00      0.000     0.000     0.000    24.000
  JUL-18-2008 08:30:00      0.000     0.000     0.000    24.000
  JUL-18-2008 08:45:00      0.000     0.000     0.000    24.000
  JUL-18-2008 09:00:00      0.000     0.000     0.000    24.000
  JUL-18-2008 09:15:00      0.000     0.000     0.000    24.000
  JUL-18-2008 09:30:00      0.000     0.000     0.000    24.000
  JUL-18-2008 09:45:00      0.000     0.000     0.000    24.000
  JUL-18-2008 10:00:00      0.000     0.000     0.000    24.000
  JUL-18-2008 10:15:00      0.000     0.000     0.000    24.000
  JUL-18-2008 10:30:00      0.000     0.000     0.000    24.000
  JUL-18-2008 10:45:00      0.000     0.000     0.000    24.000
  JUL-18-2008 11:00:00      0.000     0.000     0.000    24.000
  JUL-18-2008 11:15:00      0.000     0.000     0.000    24.000
  JUL-18-2008 11:30:00      0.000     0.000     0.000    24.000
  JUL-18-2008 11:45:00      0.000     0.000     0.000    24.000
  JUL-18-2008 12:00:00      0.000     0.000     0.000    24.000
  JUL-18-2008 12:15:00      0.000     0.000     0.000    24.000
  JUL-18-2008 12:30:00      0.000     0.000     0.000    24.000
  JUL-18-2008 12:45:00      0.000     0.000     0.000    24.000
  JUL-18-2008 13:00:00      0.000     0.000     0.000    24.000
  JUL-18-2008 13:15:00      0.000     0.000     0.000    24.000
  JUL-18-2008 13:30:00      0.000     0.000     0.000    24.000
  JUL-18-2008 13:45:00      0.000     0.000     0.000    24.000
  JUL-18-2008 14:00:00      0.000     0.000     0.000    24.000
  JUL-18-2008 14:15:00      0.000     0.000     0.000    24.000
  JUL-18-2008 14:30:00      0.000     0.000     0.000    24.000
  JUL-18-2008 14:45:00      0.000     0.000     0.000    24.000
  JUL-18-2008 15:00:00      0.000     0.000     0.000    24.000
  JUL-18-2008 15:15:00      0.000     0.000     0.000    24.000
  JUL-18-2008 15:30:00      0.000     0.000     0.000    24.000
  JUL-18-2008 15:45:00      0.000     0.000     0.000    24.000
  JUL-18-2008 16:00:00      0.000     0.000     0.000    24.000
  JUL-18-2008 16:15:00      0.000     0.000     0.000    24.000
  JUL-18-2008 16:30:00      0.000     0.000     0.000    24.000
  JUL-18-2008 16:45:00      0.000     0.000     0.000    24.000
  JUL-18-2008 17:00:00      0.000     0.000     0.000    24.000
  JUL-18-2008 17:15:00      0.000     0.000     0.000    24.000
  JUL-18-2008 17:30:00      0.000     0.000     0.000    24.000
  JUL-18-2008 17:45:00      0.000     0.000     0.000    24.000
  JUL-18-2008 18:00:00      0.000     0.000     0.000    24.000
  JUL-18-2008 18:15:00      0.000     0.000     0.000    24.000
  JUL-18-2008 18:30:00      0.000     0.000     0.000    24.000
  JUL-18-2008 18:45:00      0.000     0.000     0.000    24.000
  JUL-18-2008 19:00:00      0.000     0.000     0.000    24.000
  JUL-18-2008 19:15:00      0.000     0.000     0.000    24.000
  JUL-18-2008 19:30:00      0.000     0.000     0.000    24.000
  JUL-18-2008 19:45:00      0.000     0.000     0.000    24.000
  JUL-18-2008 20:00:00      0.000     0.000     0.000    24.000
  JUL-18-2008 20:15:00      0.000     0.000     0.000    24.000
  JUL-18-2008 20:30:00      0.000     0.000     0.000    24.000
  JUL-18-2008 20:45:00      0.000     0.000     0.000    24.000
  JUL-18-2008 21:00:00      0.000     0.000     0.000    24.000
  JUL-18-2008 21:15:00      0.000     0.000     0.000    24.000
  JUL-18-2008 21:30:00      0.000     0.000     0.000    24.000
  JUL-18-2008 21:45:00      0.000     0.000     0.000    24.000
  JUL-18-2008 22:00:00      0.000     0.000     0.000    24.000
  JUL-18-2008 22:15:00      0.000     0.000     0.000    24.000
  JUL-18-2008 22:30:00      0.000     0.000     0.000    24.000
  JUL-18-2008 22:45:00      0.000     0.000     0.000    24.000
  JUL-18-2008 23:00:00      0.000     0.000     0.000    24.000
  JUL-18-2008 23:15:00      0.000     0.000     0.000    24.000
  JUL-18-2008 23:30:00      0.000     0.000     0.000    24.000
  JUL-18-2008 23:45:00      0.000     0.000     0.000    24.000
  JUL-19-2008 00:00:00      0.000     0.000     0.000    24.000
  JUL-19-2008 00:15:00      0.000     0.000     0.000    24.000
  JUL-19-2008 00:30:00      0.000     0.000     0.000    24.000
  JUL-19-2008 00:45:00      0.000     0.000     0.000    24.000
  JUL-19-2008 01:00:00      0.000     0.000     0.000    24.000
  JUL-19-2008 01:15:00      0.000     0.000     0.000    24.000
  JUL-19-2008 01:30:00      0.000     0.000     0.000    24.000
  JUL-19-2008 01:45:00      0.000     0.000     0.000    24.000
  JUL-19-2008 02:00:00      0.000     0.000     0.000    24.000
  JUL-19-2008 02:15:00      0.000     0.000     0.000    24.000
  JUL-19-2008 02:30:00      0.000     0.000     0.000    24.000
  JUL-19-2008 02:45:00      0.000     0.000     0.000    24.000
  JUL-19-2008 03:00:00      0.000     0.000     0.000    24.000
  JUL-19-2008 03:15:00      0.000     0.000     0.000    24.000
  JUL-19-2008 03:30:00      0.000     0.000     0.000    24.000
  JUL-19-2008 03:45:00      0.000     0.000     0.000    24.000
  JUL-19-2008 04:00:00      0.000     0.000     0.000    24.000
  JUL-19-2008 04:15:00      0.000     0.000     0.000    24.000
  JUL-19-2008 04:30:00      0.000     0.000     0.000    24.000
  JUL-19-2008 04:45:00      0.000     0.000     0.000    24.000
  JUL-19-2008 05:00:00      0.000     0.000     0.000    24.000
  JUL-19-2008 05:15:00      0.000     0.000     0.000    24.000
  JUL-19-2008 05:30:00      0.000     0.000     0.000    24.000
  JUL-19-2008 05:45:00      0.000     0.000     0.000    24.000
  JUL-19-2008 06:00:00      0.000     0.000     0.000    24.000
  JUL-19-2008 06:15:00      0.000     0.000     0.000    24.000
  JUL-19-2008 06:30:00      0.000     0.000     0.000    24.000
  JUL-19-2008 06:45:00      0.000     0.000     0.000    24.000
  JUL-19-2008 07:00:00      0.000     0.000     0.000    24.000
  JUL-19-2008 07:15:00      0.000     0.000     0.000    24.000
  JUL-19-2008 07:30:00      0.000     0.000     0.000    24.000
  JUL-19-2008 07:45:00      0.000     0.000     0.000    24.000
  JUL-19-2008 08:00:00      0.000     0.000     0.000    24.000
  JUL-19-2008 08:15:00      0.000     0.000     0.000    24.000
  JUL-19-2008 08:30:00      0.000     0.000     0.000    24.000
  JUL-19-2008 08:45:00      0.000     0.000     0.000    24.000
  JUL-19-2008 09:00:00      0.000     0.000     0.000    24.000
  JUL-19-2008 09:15:00      0.000     0.000     0.000    24.000
  JUL-19-2008 09:30:00      0.000     0.000     0.000    24.000
  JUL-19-2008 09:45:00      0.000     0.000     0.000    24.000
  JUL-19-2008 10:00:00      0.000     0.000     0.000    24.000
  JUL-19-2008 10:15:00      0.000     0.000     0.000    24.000
  JUL-19-2008 10:30:00      0.000     0.000     0.000    24.000
  JUL-19-2008 10:45:00      0.000     0.000     0.000    24.000
  JUL-19-2008 11:00:00      0.000     0.000     0.000    24.000
  JUL-19-2008 11:15:00      0.000     0.000     0.000    24.000
  JUL-19-2008 11:30:00      0.000     0.000     0.000    24.000
  JUL-19-2008 11:45:00      0.000     0.000     0.000    24.000
  JUL-19-2008 12:00:00      0.000     0.000     0.000    24.000
  JUL-19-2008 12:15:00      0.000     0.000     0.000    24.000
  JUL-19-2008 12:30:00      0.000     0.000     0.000    24.000
  JUL-19-2008 12:45:00      0.000     0.000     0.000    24.000
  JUL-19-2008 13:00:00      0.000     0.000     0.000    24.000
  JUL-19-2008 13:15:00      0.000     0.000     0.000    24.000
  JUL-19-2008 13:30:00      0.000     0.000     0.000    24.000
  JUL-19-2008 13:45:00      0.000     0.000     0.000    24.000
  JUL-19-2008 14:00:00      0.000     0.000     0.000    24.000
  JUL-19-2008 14:15:00      0.000     0.000     0.000    24.000
  JUL-19-2008 14:30:00      0.000     0.000     0.000    24.000
  JUL-19-2008 14:45:00      0.000     0.000     0.000    24.000
  JUL-19-2008 15:00:00      0.000     0.000     0.000    24.000
  JUL-19-2008 15:15:00      0.000     0.000     0.000    24.000
  JUL-19-2008 15:30:00      0.000     0.000     0.000    24.000
  JUL-19-2008 15:45:00      0.000     0.000     0.000    24.000
  JUL-19-2008 16:00:00      0.000     0.000     0.000    24.000
  JUL-19-2008 16:15:00      0.000     0.000     0.000    24.000
  JUL-19-2008 16:30:00      0.000     0.000     0.000    24.000
  JUL-19-2008 16:45:00      0.000     0.000     0.000    24.000
  JUL-19-2008 17:00:00      0.000     0.000     0.000    24.000
  JUL-19-2008 17:15:00      0.000     0.000     0.000    24.000
  JUL-19-2008 17:30:00      0.000     0.000     0.000    24.000
  JUL-19-2008 17:45:00      0.000     0.000     0.000    24.000
  JUL-19-2008 18:00:00      0.000     0.000     0.000    24.000
  JUL-19-2008 18:15:00      0.000     0.000     0.000    24.000
  JUL-19-2008 18:30:00      0.000     0.000     0.000    24.000
  JUL-19-2008 18:45:00      0.000     0.000     0.000    24.000
  JUL-19-2008 19:00:00      0.000     0.000     0.000    24.000
  JUL-19-2008 19:15:00      0.000     0.000     0.000    24.000
  JUL-19-2008 19:30:00      0.000     0.000     0.000    24.000
  JUL-19-2008 19:45:00      0.000     0.000     0.000    24.000
  JUL-19-2008 20:00:00      0.000     0.000     0.000    24.000
  JUL-19-2008 20:15:00      0.000     0.000     0.000    24.000
  JUL-19-2008 20:30:00      0.000     0.000     0.000    24.000
  JUL-19-2008 20:45:00      0.000     0.000     0.000    24.000
  JUL-19-2008 21:00:00      0.000     0.000     0.000    24.000
  JUL-19-2008 21:15:00      0.000     0.000     0.000    24.000
  JUL-19-2008 21:30:00      0.000     0.000     0.000    24.000
  JUL-19-2008 21:45:00      0.000     0.000     0.000    24.000
  JUL-19-2008 22:00:00      0.000     0.000     0.000    24.000
  JUL-19-2008 22:15:00      0.000     0.000     0.000    24.000
  JUL-19-2008 22:30:00      0.000     0.000     0.000    24.000
  JUL-19-2008 22:45:00      0.000     0.000     0.000    24.000
  JUL-19-2008 23:00:00      0.000     0.000     0.000    24.000
  JUL-19-2008 23:15:00      0.000     0.000     0.000    24.000
  JUL-19-2008 23:30:00      0.000     0.000     0.000    24.000
  JUL-19-2008 23:45:00      0.000     0.000     0.000    24.000
  JUL-20-2008 00:00:00      0.000     0.000     0.000    24.000
  

  Analysis begun on:  Tue Nov 01 12:27:18 2016
  Analysis ended on:  Tue Nov 01 12:27:21 2016
  Total elapsed time: 00:00:03