
  EPA STORM WATER MANAGEMENT MODEL - VERSION 5.1 (Build 5.1.009)
  --------------------------------------------------------------

  Polygons for the sheds: Projected Coordinate System:NAD_1983_StatePlane_Pennsylvania_South_FIPS_3702_Feet 
  Polygons for the sheds: Projected Coordinate System:NAD_1983_StatePlane_Pennsylvania_South_FIPS_3702_Feet 
  Polygons for the sheds: Projected Coordinate System:NAD_1983_StatePlane_Pennsylvania_South_FIPS_3702_Feet 
  
  *************
  Element Count
  *************
  Number of rain gages ...... 1
  Number of subcatchments ... 145
  Number of nodes ........... 76
  Number of links ........... 76
  Number of pollutants ...... 0
  Number of land uses ....... 0
  
  
  ****************
  Raingage Summary
  ****************
                                                      Data       Recording
  Name                 Data Source                    Type       Interval 
  ------------------------------------------------------------------------
  GAGE1                rain_data_philly.dat          
  
  
  ********************
  Subcatchment Summary
  ********************
  Name                       Area     Width   %Imperv    %Slope Rain Gage            Outlet              
  -----------------------------------------------------------------------------------------------------------
  CHEWSTA_shed               5.13    945.00     55.12    5.1648 GAGE1                TT14-275            
  CHEWSTB_shed               8.62   1226.00     15.27   13.5463 GAGE1                TT14-275            
  CLEARVIEW_shed             2.98    721.00     68.88    8.2804 GAGE1                TT14-286            
  T14-A1_shed               99.01   4153.00     62.23    6.6143 GAGE1                TT14-006            
  T14-A2_shed              138.27   4908.00     47.88    5.5028 GAGE1                TT14-016            
  T14-A3_shed               98.68   4147.00     55.94    5.9027 GAGE1                TT14-030            
  T14-A4_shed               91.79   3999.00     74.13    4.6798 GAGE1                TT14-044            
  T14-A5_shed               15.27   1631.00     88.82    4.5005 GAGE1                TT14-048            
  T14-B_shed               327.26   7551.00     65.86    3.4501 GAGE1                TT14-904            
  T14-C1_shed               74.48   3602.00     86.05    4.6450 GAGE1                TT14-048            
  T14-C2_shed               72.21   3547.00     71.70    5.8267 GAGE1                TT14-058            
  T14-C3_shed               29.40   2263.00     61.46    3.7465 GAGE1                TT14-068            
  T14-C4_shed               17.84   1763.00     80.89    4.7208 GAGE1                TT14-068            
  T14-D_shed                81.14   3760.00     50.46    3.6339 GAGE1                TT14-106            
  T14-E_shed               153.01   5163.00     63.67    4.0992 GAGE1                TT14-076            
  T14-F_shed                23.84   2038.00     29.72    5.6956 GAGE1                TT14-076            
  T14-G_shed                55.59   3112.00     66.14    4.4413 GAGE1                TT14-076            
  T14-H_shed                 2.19    618.00     66.15   20.4101 GAGE1                TT14-092            
  T14-J_shed               148.01   5078.00     72.76    5.1622 GAGE1                TT14-306            
  T14-K1_shed               25.55   2110.00     66.17    1.9451 GAGE1                TT14-306            
  T14-K2_shed               25.77   2119.00     79.80    5.0437 GAGE1                TT14-312            
  T14-K3_shed              328.15   7562.00     59.18    6.5841 GAGE1                TT14-312            
  T14-L1_shed                6.84   1092.00     89.62    3.3775 GAGE1                TT14-406            
  T14-L2_shed              105.35   4284.00     66.70    6.1219 GAGE1                TT14-418            
  T14-M1_shed               67.21   3422.00     70.42    5.2613 GAGE1                TT14-202            
  T14-M2_shed               77.25   3669.00     65.70    8.3501 GAGE1                TT14-222            
  T14-P1_shed              106.64   4311.00     36.24    8.7182 GAGE1                TT14-228            
  T14-P2_shed               36.28   2514.00     48.31    8.3055 GAGE1                TT14-240            
  T14-P3_shed               94.70   4062.00     53.42    7.7216 GAGE1                TT14-243            
  T14-P4_shed               60.49   3247.00     51.75    8.6727 GAGE1                TT14-248            
  T14-P5_shed               31.05   2326.00     43.67    9.0507 GAGE1                TT14-262            
  T14-R1_shed               73.62   3582.00     65.16    6.4070 GAGE1                TT14-262            
  T14-R2_shed               64.46   3351.00     50.62    4.6868 GAGE1                TT14-814            
  T14-R3_shed               29.84   2280.00     69.08    3.0616 GAGE1                TT14-828            
  T14-R4_shed               23.46   2022.00     72.59    4.6880 GAGE1                TT14-828            
  T14-R5_shed               72.04   3543.00     54.12    5.2836 GAGE1                TT14-834            
  T14-R6_shed               60.67   3251.00     49.63    3.6605 GAGE1                TT14-834            
  T14-R7_shed               73.82   3586.00     45.51    4.4664 GAGE1                TT14-848            
  T14-T_shed                 6.05   1027.00     79.71    4.4655 GAGE1                TT14-112            
  T14-U_shed                13.50   1534.00     77.62    7.3625 GAGE1                TT14-112            
  TT14-262A_shed            95.49   4079.00     58.84    7.2167 GAGE1                TT14-262            
  TT14-263A_shed            15.20   1627.00     38.58    6.8504 GAGE1                TT14-263            
  TT14-264A_shed            22.33   1973.00     63.42    7.7536 GAGE1                TT14-264            
  TT14-264B_shed             2.35    640.00     56.69   16.0470 GAGE1                TT14-264            
  TT14-264C_shed            26.04   2130.00     53.43    5.4776 GAGE1                TT14-264            
  TT14-264D_shed            22.12   1963.00     63.23    4.2933 GAGE1                TT14-264            
  TT14-264E_shed             2.58    670.00     78.84    9.3642 GAGE1                TT14-264            
  TT14-266A_shed             1.50    511.00     81.19    6.4237 GAGE1                TT14-268            
  TT14-266B_shed             3.70    803.00     90.08    5.6761 GAGE1                TT14-268            
  TT14-270A_shed             4.51    886.00     54.27    9.0885 GAGE1                TT14-268            
  TT14-270B_shed             3.12    737.00     35.03    6.3066 GAGE1                TT14-268            
  TT14-272A_shed             3.42    772.00     44.73    8.5089 GAGE1                TT14-275            
  TT14-274A_shed             2.08    602.00     85.84    4.3110 GAGE1                TT14-275            
  TT14-274B_shed            11.11   1391.00     60.58    8.7356 GAGE1                TT14-275            
  TT14-274C_shed            16.67   1704.00     61.86    7.8600 GAGE1                TT14-275            
  TT14-278A_shed             5.74   1000.00     67.35   12.9272 GAGE1                TT14-280            
  TT14-278B_shed            12.67   1486.00     58.41    7.3345 GAGE1                TT14-280            
  TT14-278C_shed             2.67    682.00     81.92    6.1641 GAGE1                TT14-280            
  TT14-280A_shed             1.85    568.00     61.93   10.2883 GAGE1                TT14-280            
  TT14-282A_shed            39.75   2632.00     64.22    7.4516 GAGE1                TT14-280            
  TT14-284A_shed             2.94    716.00     59.79    3.7087 GAGE1                TT14-286            
  TT14-284B_shed             0.55    310.00     69.24    4.3028 GAGE1                TT14-286            
  TT14-284C_shed             0.95    407.00     85.75    2.3486 GAGE1                TT14-286            
  TT14-286A_shed             2.56    668.00     78.26    5.0568 GAGE1                TT14-286            
  TT14-288A_shed             0.43    274.00     82.84    2.7076 GAGE1                TT14-286            
  TT14-288B_shed             6.60   1072.00     70.84   12.1775 GAGE1                TT14-286            
  TT14-288C_shed             3.21    748.00     46.19    8.6243 GAGE1                TT14-286            
  TT14-291A_shed            18.07   1774.00     59.44    7.7606 GAGE1                TT14-291            
  TT14-291B_shed             5.33    964.00     65.68    5.4610 GAGE1                TT14-291            
  TT14-291C_shed             0.58    318.00     92.36    0.0293 GAGE1                TT14-291            
  TT14-291D_shed            85.18   3853.00     25.08    7.1724 GAGE1                TT14-291            
  TT14-294A_shed             1.85    568.00     60.11    3.4355 GAGE1                TT14-296            
  TT14-294B_shed             0.71    352.00     62.98    7.0827 GAGE1                TT14-296            
  TT14-294C_shed            14.12   1569.00     51.41    9.3086 GAGE1                TT14-296            
  TT14-296A_shed             0.96    409.00     81.79    4.4320 GAGE1                TT14-296            
  TT14-296B_shed           186.82   5705.00     54.48    5.5072 GAGE1                TT14-296            
  TT14-502_shed            112.50   4427.00     36.23    9.5180 GAGE1                TT14-502            
  TT14-524_shed             85.18   3853.00     67.08    5.8370 GAGE1                TT14-524            
  TT14-530_shed             89.78   3955.00     73.73    6.7967 GAGE1                TT14-530            
  TT14-544_shed             31.09   2327.00     68.91    8.4910 GAGE1                TT14-546            
  TT14-552A_shed            47.94   2890.00     67.63    5.3960 GAGE1                TT14-554            
  TT14-552B_shed           105.38   4285.00     56.25    4.0840 GAGE1                TT14-554            
  TT14-554_shed             12.55   1479.00     62.53    4.3423 GAGE1                TT14-554            
  TT14-558_shed            121.62   4603.00     63.76    3.5397 GAGE1                TT14-560            
  TT14-560_shed             29.10   2252.00     61.54    5.6022 GAGE1                TT14-560            
  TT14-574_shed            150.12   5114.00     50.05    5.8044 GAGE1                TT14-574            
  TT14-584_shed            143.95   5008.00     56.00    5.9178 GAGE1                TT14-582            
  TT14-602A_shed             1.86    569.00     83.39    9.3377 GAGE1                TT14-296            
  TT14-602B_shed             6.37   1054.00     43.80    6.2733 GAGE1                TT14-296            
  TT14-602C_shed            36.63   2526.00     42.88    7.0148 GAGE1                TT14-296            
  TT14-602D_shed             3.85    819.00     55.71    5.0698 GAGE1                TT14-296            
  TT14-606A_shed             2.91    712.00     62.20    8.6558 GAGE1                TT14-606            
  TT14-606B_shed             5.32    963.00     63.73    5.9962 GAGE1                TT14-606            
  TT14-610A_shed             0.62    329.00     66.53    2.3854 GAGE1                TT14-612            
  TT14-610B_shed             0.84    383.00     71.02    6.4988 GAGE1                TT14-612            
  TT14-610C_shed            53.32   3048.00     48.88    8.1023 GAGE1                TT14-612            
  TT14-610D_shed             3.62    794.00     49.47    4.6156 GAGE1                TT14-612            
  TT14-612A_shed             2.48    657.00     54.28    5.4626 GAGE1                TT14-612            
  TT14-612B_shed             0.77    366.00     60.70    5.4389 GAGE1                TT14-612            
  TT14-612C_shed             5.96   1019.00     67.18    5.9432 GAGE1                TT14-612            
  TT14-614A_shed             2.34    639.00     48.64    6.3496 GAGE1                TT14-616            
  TT14-614B_shed             0.87    389.00     65.41    5.8590 GAGE1                TT14-616            
  TT14-614C_shed             4.31    867.00     71.41    7.0414 GAGE1                TT14-616            
  TT14-616A_shed             2.33    637.00     65.53    5.7363 GAGE1                TT14-616            
  TT14-616B_shed             4.00    835.00     65.86    6.5364 GAGE1                TT14-616            
  TT14-618A_shed            14.09   1567.00     66.26    7.2702 GAGE1                TT14-622            
  TT14-620A_shed             3.46    776.00     63.96    7.3269 GAGE1                TT14-622            
  TT14-620B_shed            92.26   4009.00     50.31    6.4510 GAGE1                TT14-622            
  TT14-622A_shed             4.20    855.00     63.61    6.4604 GAGE1                TT14-622            
  TT14-624A_shed             3.46    776.00     64.01    6.2178 GAGE1                TT14-622            
  TT14-630A_shed             7.72   1160.00     51.84    7.5646 GAGE1                TT14-622            
  TT14-636A_shed             1.03    424.00     66.54    6.6110 GAGE1                TT14-636            
  TT14-636B_shed             5.74   1000.00     53.45    6.0380 GAGE1                TT14-636            
  TT14-639A_shed             1.75    552.00     64.57    6.3578 GAGE1                TT14-639            
  TT14-639B_shed             9.81   1307.00     44.85   11.9940 GAGE1                TT14-639            
  TT14-639C_shed            10.13   1329.00     48.05    7.4148 GAGE1                TT14-639            
  TT14-640A_shed             3.48    779.00     43.61    6.5414 GAGE1                TT14-642            
  TT14-642A_shed            23.68   2031.00     33.71    7.0016 GAGE1                TT14-642            
  TT14-642B_shed             2.14    611.00     57.98   11.4478 GAGE1                TT14-642            
  TT14-642C_shed             6.73   1083.00     45.41    6.3176 GAGE1                TT14-642            
  TT14-644A_shed             3.43    773.00     36.66    4.9399 GAGE1                TT14-642            
  TT14-646A_shed            73.42   3577.00     52.52    6.1808 GAGE1                TT14-646            
  TT14-648A_shed            47.95   2890.00     41.43    6.2150 GAGE1                TT14-646            
  TT14-648B_shed             3.55    786.00     54.98    8.1076 GAGE1                TT14-646            
  TT14-658A_shed            22.00   1958.00     43.94    7.3366 GAGE1                TT14-660            
  TT14-658B_shed             9.66   1297.00     52.68    7.8042 GAGE1                TT14-660            
  TT14-660A_shed             3.35    764.00     45.31    6.1643 GAGE1                TT14-660            
  TT14-666A_shed             6.87   1094.00     57.50    6.5173 GAGE1                TT14-666            
  TT14-668A_shed             3.91    825.00     38.03    5.8384 GAGE1                TT14-666            
  TT14-676A_shed             3.99    834.00     46.58    5.9884 GAGE1                TT14-676            
  TT14-684A_shed             3.20    747.00     44.46    5.3639 GAGE1                TT14-688            
  TT14-684B_shed             1.19    455.00     58.03    6.6967 GAGE1                TT14-688            
  TT14-688A_shed             1.62    531.00     51.17    5.7306 GAGE1                TT14-688            
  TT14-688B_shed             0.77    366.00     67.52    6.3366 GAGE1                TT14-688            
  TT14-688C_shed             3.27    755.00     61.60    5.2865 GAGE1                TT14-688            
  TT14-690A_shed             5.05    938.00     51.49    2.7878 GAGE1                TT14-692            
  TT14-690B_shed             1.07    432.00     47.07    5.0811 GAGE1                TT14-692            
  TT14-692A_shed             5.82   1007.00     46.68    4.6122 GAGE1                TT14-692            
  TT14-702_shed             43.93   2767.00     68.08    6.5474 GAGE1                TT14-702            
  TT14-706_shed             60.21   3239.00     55.34    5.1472 GAGE1                TT14-708            
  TT14-708_shed             82.20   3785.00     46.91    5.6262 GAGE1                TT14-708            
  TT14-720_shed            132.26   4801.00     57.69    6.5093 GAGE1                TT14-716            
  TT14-736_shed             83.15   3806.00     53.93    5.1102 GAGE1                TT14-738            
  TT14-740_shed             50.24   2959.00     50.41    4.5462 GAGE1                TT14-738            
  TT14-746_shed             51.49   2995.00     39.35    4.2342 GAGE1                TT14-746            
  
  
  ************
  Node Summary
  ************
                                           Invert      Max.    Ponded    External
  Name                 Type                 Elev.     Depth      Area    Inflow  
  -------------------------------------------------------------------------------
  TT14-006             JUNCTION             27.51     87.39       0.0
  TT14-044             JUNCTION             42.38     78.42       0.0
  TT14-030             JUNCTION             36.52     64.98       0.0
  TT14-904             JUNCTION             43.58     67.12       0.0
  TT14-048             JUNCTION             44.52     79.98       0.0
  TT14-058             JUNCTION             49.57     29.53       0.0
  TT14-068             JUNCTION             53.44     55.86       0.0
  TT14-106             JUNCTION             53.83     64.87       0.0
  TT14-076             JUNCTION             57.57     71.33       0.0
  TT14-092             JUNCTION             68.16     51.84       0.0
  TT14-112             JUNCTION             68.08     58.22       0.0
  TT14-202             JUNCTION             72.43     25.97       0.0
  TT14-406             JUNCTION             77.83     37.07       0.0
  TT14-418             JUNCTION             86.72     50.38       0.0
  TT14-306             JUNCTION             69.20     54.80       0.0
  TT14-312             JUNCTION             89.85     64.05       0.0
  TT14-222             JUNCTION             82.70     54.50       0.0
  TT14-228             JUNCTION             88.00     78.00       0.0
  TT14-502             JUNCTION             92.61     27.29       0.0
  TT14-524             JUNCTION            124.63     40.47       0.0
  TT14-240             JUNCTION            119.64     68.16       0.0
  TT14-243             JUNCTION            128.55    111.75       0.0
  TT14-248             JUNCTION            141.51    100.00       0.0
  TT14-546             JUNCTION            159.48    100.00       0.0
  TT14-530             JUNCTION            134.72     80.28       0.0
  TT14-262             JUNCTION            161.00     51.90       0.0
  TT14-814             JUNCTION            172.88     45.22       0.0
  TT14-263             JUNCTION            169.19     81.31       0.0
  TT14-828             JUNCTION            199.43     39.57       0.0
  TT14-834             JUNCTION            217.92     27.98       0.0
  TT14-264             JUNCTION            180.16    100.00       0.0
  TT14-268             JUNCTION            191.54     53.86       0.0
  TT14-554             JUNCTION            171.70     33.40       0.0
  TT14-560             JUNCTION            185.60     36.60       0.0
  TT14-574             JUNCTION            198.62     41.28       0.0
  TT14-582             JUNCTION            204.52     66.98       0.0
  TT14-275             JUNCTION            200.39    100.00       0.0
  TT14-280             JUNCTION            208.48    100.00       0.0
  TT14-286             JUNCTION            214.29     95.71       0.0
  TT14-291             JUNCTION            222.40    103.00       0.0
  TT14-296             JUNCTION            228.48     30.42       0.0
  TT14-606             JUNCTION            232.91     59.09       0.0
  TT14-746             JUNCTION            319.04    100.00       0.0
  TT14-738             JUNCTION            303.71    100.00       0.0
  TT14-716             JUNCTION            268.81     82.69       0.0
  TT14-708             JUNCTION            260.50     36.30       0.0
  TT14-702             JUNCTION            248.90    100.00       0.0
  TT14-612             JUNCTION            242.53    100.00       0.0
  TT14-616             JUNCTION            245.92    100.00       0.0
  TT14-622             JUNCTION            251.34     26.86       0.0
  TT14-636             JUNCTION            260.84     77.26       0.0
  TT14-639             JUNCTION            263.69     31.32       0.0
  TT14-642             JUNCTION            268.42    100.00       0.0
  TT14-646             JUNCTION            274.44     38.16       0.0
  TT14-660             JUNCTION            306.23     65.07       0.0
  TT14-666             JUNCTION            311.00    100.00       0.0
  TT14-676             JUNCTION            316.00    100.00       0.0
  TT14-688             JUNCTION            321.00    100.00       0.0
  TT14-692             JUNCTION            326.00    100.00       0.0
  TT14-848             JUNCTION            244.19     34.31       0.0
  TT14-016             JUNCTION             28.96     79.34       0.0
  T14_1_1090           JUNCTION             36.94     67.56       0.0
  T14_1_1160           JUNCTION             37.73     66.57       0.0
  T14_1_1440_west_split JUNCTION             47.67     58.03       0.0
  T14_1_2390_east      JUNCTION             68.64     29.46       0.0
  T14_1_2410           JUNCTION             69.22    100.00       0.0
  T14_1_1520_west      JUNCTION             68.48     58.82       0.0
  T14_2_230            JUNCTION            112.90     77.10       0.0
  T14_2_2040           JUNCTION            273.38     21.62       0.0
  T14_2_2070           JUNCTION            273.74     72.36       0.0
  T14_2_2120           JUNCTION            276.38     47.92       0.0
  T14_2_2530           JUNCTION            310.30     68.30       0.0
  T14_3_640            JUNCTION            159.90     87.31       0.0
  T14_3_3_10           JUNCTION            166.82     57.98       0.0
  T14_3_1340           JUNCTION            237.51     32.29       0.0
  O1                   OUTFALL              24.00     21.00       0.0
  
  
  ************
  Link Summary
  ************
  Name             From Node        To Node          Type            Length    %Slope Roughness
  ---------------------------------------------------------------------------------------------
  C1               TT14-016         TT14-006         CONDUIT          695.0    0.2086    0.0130
  C2               TT14-030         TT14-016         CONDUIT         2844.6    0.2658    0.0130
  C3               TT14-904         TT14-030         CONDUIT          710.9    0.9929    0.0150
  C4               T14_1_1090       TT14-030         CONDUIT          843.4    0.0496    0.0130
  C5               T14_1_1160       T14_1_1090       CONDUIT          261.3    0.3023    0.0100
  C6               TT14-044         T14_1_1160       CONDUIT         1421.4    0.3271    0.0130
  C7               TT14-048         TT14-044         CONDUIT          638.4    0.3354    0.0130
  C8               T14_1_1440_west_split TT14-048         CONDUIT          536.0    0.5877    0.0130
  C9               TT14-106         T14_1_1440_west_split CONDUIT         2372.7    0.2596    0.0130
  C10              TT14-112         TT14-106         CONDUIT         2664.7    0.5346    0.0130
  C11              TT14-076         TT14-068         CONDUIT         1061.0    0.3893    0.0150
  C12              TT14-092         TT14-076         CONDUIT         1906.2    0.5556    0.0150
  C13              TT14-058         TT14-048         CONDUIT         1331.1    0.3794    0.0130
  C14              TT14-068         TT14-058         CONDUIT          904.2    0.4280    0.0100
  C15              T14_1_2390_east  TT14-092         CONDUIT          347.7    0.1369    0.0130
  C16              TT14-306         T14_1_2410       CONDUIT          368.7    2.7285    0.0150
  C17              T14_1_2410       T14_1_2390_east  CONDUIT           94.1    0.6206    0.0130
  C18              T14_1_2410       T14_1_1520_west  CONDUIT           75.6    0.9789    0.0130
  C19              T14_1_1520_west  TT14-112         CONDUIT          102.0    0.3961    0.0130
  C20              TT14-202         T14_1_2410       CONDUIT          133.0    2.4142    0.0100
  C21              TT14-312         TT14-306         CONDUIT          133.0   15.7193    0.0100
  C22              TT14-406         T14_1_2390_east  CONDUIT          896.7    1.0254    0.0130
  C23              TT14-418         TT14-406         CONDUIT         1341.9    0.6625    0.0130
  C24              TT14-222         TT14-202         CONDUIT         1841.0    0.5579    0.0130
  C25              TT14-228         TT14-222         CONDUIT          868.6    0.6102    0.0130
  C26              TT14-502         TT14-228         CONDUIT          112.2    7.2368    0.0130
  C27              T14_2_230        TT14-502         CONDUIT         2408.2    0.8425    0.0130
  C28              TT14-524         T14_2_230        CONDUIT         1030.9    1.1378    0.0130
  C29              TT14-530         TT14-524         CONDUIT         1030.9    0.9789    0.0150
  C30              TT14-546         TT14-530         CONDUIT         1641.5    1.5085    0.0150
  C31              TT14-554         TT14-546         CONDUIT          884.0    1.3827    0.0150
  C32              TT14-560         TT14-554         CONDUIT         1100.2    1.2635    0.0150
  C33              TT14-574         TT14-560         CONDUIT         1306.4    0.9969    0.0150
  C34              TT14-582         TT14-574         CONDUIT          972.9    0.6062    0.0150
  C35              TT14-702         TT14-582         CONDUIT         2477.0    1.7921    0.0150
  C36              TT14-708         TT14-702         CONDUIT          929.5    1.2478    0.0130
  C37              TT14-716         TT14-708         CONDUIT         1124.0    0.7393    0.0130
  C38              T14_2_2040       TT14-716         CONDUIT          736.9    0.6202    0.0130
  C39              T14_2_2070       T14_2_2040       CONDUIT           31.0    1.1452    0.0150
  C40              T14_2_2120       T14_2_2070       CONDUIT          231.4    1.1453    0.0130
  C41              TT14-738         T14_2_2120       CONDUIT         2076.9    1.3158    0.0130
  C42              T14_2_2530       TT14-738         CONDUIT          499.6    1.3193    0.0130
  C43              TT14-746         T14_2_2530       CONDUIT          554.3    1.5771    0.0150
  C44              TT14-240         TT14-228         CONDUIT         2468.4    1.2819    0.0130
  C45              TT14-243         TT14-240         CONDUIT          621.7    1.4332    0.0130
  C46              TT14-248         TT14-243         CONDUIT          743.4    1.7441    0.0130
  C47              T14_3_640        TT14-248         CONDUIT         1057.3    1.7388    0.0130
  C48              TT14-262         T14_3_640        CONDUIT         1194.3    0.0925    0.0150
  C49              T14_3_3_10       TT14-262         CONDUIT          129.4    0.1935    0.0150
  C50              TT14-814         T14_3_3_10       CONDUIT          646.9    0.9376    0.0150
  C51              TT14-814         TT14-828         CONDUIT         4185.2   -0.6344    0.0130
  C52              TT14-834         TT14-828         CONDUIT         1126.3    1.6415    0.0130
  C53              TT14-848         TT14-834         CONDUIT         1543.2    1.7028    0.0150
  C54              TT14-263         TT14-262         CONDUIT          681.5    1.2013    0.0150
  C55              TT14-264         TT14-263         CONDUIT          945.5    1.1607    0.0150
  C56              TT14-268         TT14-264         CONDUIT          972.2    1.1707    0.0150
  C57              TT14-275         TT14-268         CONDUIT          810.7    1.0917    0.0150
  C58              TT14-280         TT14-275         CONDUIT          757.8    1.0676    0.0150
  C59              TT14-286         TT14-280         CONDUIT          579.2    1.0032    0.0150
  C60              TT14-291         TT14-286         CONDUIT          788.5    1.0286    0.0150
  C61              TT14-296         TT14-291         CONDUIT          834.7    0.7285    0.0150
  C62              TT14-606         TT14-296         CONDUIT          627.9    0.7054    0.0130
  C63              T14_3_1340       TT14-606         CONDUIT          713.5    0.6454    0.0130
  C64              TT14-612         T14_3_1340       CONDUIT          292.8    1.7130    0.0150
  C65              TT14-616         TT14-612         CONDUIT          249.6    1.3587    0.0150
  C66              TT14-622         TT14-616         CONDUIT          350.7    1.5457    0.0150
  C67              TT14-636         TT14-622         CONDUIT          653.4    1.1740    0.0130
  C68              TT14-639         TT14-636         CONDUIT          233.8    1.2169    0.0150
  C69              TT14-642         TT14-639         CONDUIT          422.9    1.1198    0.0150
  C70              TT14-646         TT14-642         CONDUIT          542.7    1.1086    0.0150
  C71              TT14-660         TT14-646         CONDUIT          990.7    3.2110    0.0150
  C72              TT14-666         TT14-660         CONDUIT          406.9    1.1718    0.0150
  C73              TT14-676         TT14-666         CONDUIT          743.3    0.6727    0.0150
  C74              TT14-688         TT14-676         CONDUIT          859.2    0.5819    0.0150
  C75              TT14-692         TT14-688         CONDUIT          251.9    1.9851    0.0150
  outflow          TT14-006         O1               CONDUIT         1090.0    0.3220    0.0130
  
  
  *********************
  Cross Section Summary
  *********************
                                        Full     Full     Hyd.     Max.   No. of     Full
  Conduit          Shape               Depth     Area     Rad.    Width  Barrels     Flow
  ---------------------------------------------------------------------------------------
  C1               MODBASKETHANDLE     21.00   442.19     5.55    24.00        1  7235.82
  C2               MODBASKETHANDLE     21.00   442.19     5.55    24.00        1  8167.78
  C3               CIRCULAR             7.00    38.48     1.75     7.00        1   551.68
  C4               RECT_OPEN           19.00   418.00     6.97    22.00        1  3880.07
  C5               CIRCULAR            19.00   283.53     4.75    19.00        1  6546.21
  C6               CIRCULAR            19.00   283.53     4.75    19.00        1  5237.50
  C7               RECT_OPEN           18.00   378.00     6.63    21.00        1  8832.32
  C8               RECT_OPEN           15.00   255.00     5.43    17.00        1  6899.55
  C9               MODBASKETHANDLE     12.00   214.42     3.68    21.00        1  2979.44
  C10              RECT_OPEN           16.00   272.00     5.55    17.00        1  7127.18
  C11              CIRCULAR            16.00   201.06     4.00    16.00        1  3131.53
  C12              CIRCULAR            14.00   153.94     3.50    14.00        1  2620.32
  C13              CIRCULAR            17.50   240.53     4.38    17.50        1  4530.11
  C14              CIRCULAR            17.40   237.79     4.35    17.40        1  6160.06
  C15              RECT_OPEN           14.00   196.00     4.67    14.00        1  2314.82
  C16              CIRCULAR             8.00    50.27     2.00     8.00        1  1305.70
  C17              RECT_CLOSED          6.00    69.00     1.97    11.50        1   976.92
  C18              RECT_CLOSED          6.00    55.06     1.81     9.18        1   926.23
  C19              RECT_OPEN           14.00   224.00     5.09    16.00        1  4768.84
  C20              RECT_OPEN           15.00   255.00     5.43    17.00        1 18179.30
  C21              CIRCULAR             7.50    44.18     1.88     7.50        1  3957.75
  C22              RECT_OPEN            6.00    30.00     1.76     5.00        1   507.10
  C23              RECT_OPEN            6.00    30.00     1.76     5.00        1   407.60
  C24              RECT_OPEN           15.00   300.00     6.00    20.00        1  8457.19
  C25              RECT_OPEN           15.00   255.00     5.43    17.00        1  7030.50
  C26              RECT_OPEN           12.00   216.00     5.14    18.00        1 19789.67
  C27              RECT_OPEN            9.50   133.00     4.03    14.00        1  3534.03
  C28              CIRCULAR            10.00    78.54     2.50    10.00        1  1763.95
  C29              CIRCULAR             9.50    70.88     2.38     9.50        1  1236.76
  C30              CIRCULAR             9.00    63.62     2.25     9.00        1  1329.10
  C31              CIRCULAR             8.50    56.75     2.13     8.50        1  1092.59
  C32              CIRCULAR             8.50    56.75     2.13     8.50        1  1044.42
  C33              CIRCULAR             8.50    56.75     2.13     8.50        1   927.71
  C34              CIRCULAR             8.50    56.75     2.13     8.50        1   723.46
  C35              CIRCULAR             8.50    56.75     2.13     8.50        1  1243.88
  C36              RECT_OPEN            8.00    60.00     2.55     7.50        1  1431.15
  C37              RECT_OPEN            8.00    60.00     2.55     7.50        1  1101.61
  C38              RECT_OPEN            7.50    56.25     2.50     7.50        1   932.72
  C39              CIRCULAR             6.00    28.27     1.50     6.00        1   392.79
  C40              RECT_OPEN            6.00    36.00     2.00     6.00        1   699.07
  C41              RECT_OPEN            7.50    45.00     2.14     6.00        1   980.71
  C42              RECT_OPEN            6.00    30.00     1.76     5.00        1   575.19
  C43              CIRCULAR             5.00    19.63     1.25     5.00        1   283.46
  C44              RECT_OPEN           13.00   286.00     5.96    22.00        1 12165.15
  C45              RECT_OPEN           13.00   279.50     5.88    21.50        1 12466.38
  C46              RECT_OPEN           13.00   279.50     5.88    21.50        1 13752.22
  C47              RECT_OPEN           13.00   279.50     5.88    21.50        1 13730.99
  C48              CIRCULAR            12.00   113.10     3.00    12.00        1   708.90
  C49              CIRCULAR             7.00    38.48     1.75     7.00        1   243.53
  C50              RECT_OPEN            7.00    56.00     2.55     8.00        1  1001.46
  C51              RECT_OPEN            6.50    48.75     2.38     7.50        1   790.73
  C52              RECT_OPEN            6.00    36.00     2.00     6.00        1   836.92
  C53              CIRCULAR             5.00    19.63     1.25     5.00        1   294.54
  C54              CIRCULAR             9.00    63.62     2.25     9.00        1  1186.07
  C55              CIRCULAR             8.50    56.75     2.13     8.50        1  1001.06
  C56              CIRCULAR             8.50    56.75     2.13     8.50        1  1005.33
  C57              CIRCULAR             8.50    56.75     2.13     8.50        1   970.84
  C58              CIRCULAR             8.25    53.46     2.06     8.25        1   886.59
  C59              CIRCULAR             8.25    53.46     2.06     8.25        1   859.45
  C60              CIRCULAR             8.25    53.46     2.06     8.25        1   870.26
  C61              CIRCULAR             8.25    53.46     2.06     8.25        1   732.36
  C62              RECT_OPEN           10.00    90.00     3.10     9.00        1  1838.36
  C63              RECT_OPEN           11.50    92.00     2.97     8.00        1  1744.76
  C64              CIRCULAR             7.50    44.18     1.88     7.50        1   871.01
  C65              CIRCULAR             7.50    44.18     1.88     7.50        1   775.72
  C66              CIRCULAR             7.50    44.18     1.88     7.50        1   827.37
  C67              RECT_OPEN           10.50    73.50     2.63     7.00        1  1732.27
  C68              CIRCULAR             7.00    38.48     1.75     7.00        1   610.76
  C69              CIRCULAR             6.00    28.27     1.50     6.00        1   388.41
  C70              CIRCULAR             6.00    28.27     1.50     6.00        1   386.45
  C71              CIRCULAR             4.00    12.57     1.00     4.00        1   223.08
  C72              CIRCULAR             3.50     9.62     0.88     3.50        1    94.39
  C73              CIRCULAR             3.50     9.62     0.88     3.50        1    71.52
  C74              CIRCULAR             3.50     9.62     0.88     3.50        1    66.52
  C75              CIRCULAR             3.00     7.07     0.75     3.00        1    81.44
  outflow          MODBASKETHANDLE     21.00   442.19     5.55    24.00        1  8989.53
  
  
  
  *********************
  Rainfall File Summary
  *********************
  Station    First        Last         Recording   Periods    Periods    Periods
  ID         Date         Date         Frequency  w/Precip    Missing    Malfunc.
  -------------------------------------------------------------------------------
  PHILADELPHIA JAN-28-2007  JAN-01-2016     60 min     50601          0          0

  
  *********************************************************
  NOTE: The summary statistics displayed in this report are
  based on results found at every computational time step,  
  not just on results from each reporting time step.
  *********************************************************
  
  ****************
  Analysis Options
  ****************
  Flow Units ............... CFS
  Process Models:
    Rainfall/Runoff ........ YES
    RDII ................... NO
    Snowmelt ............... NO
    Groundwater ............ NO
    Flow Routing ........... YES
    Ponding Allowed ........ NO
    Water Quality .......... NO
  Infiltration Method ...... GREEN_AMPT
  Flow Routing Method ...... DYNWAVE
  Starting Date ............ OCT-01-2008 00:00:00
  Ending Date .............. NOV-01-2008 00:00:00
  Antecedent Dry Days ...... 0.0
  Report Time Step ......... 01:00:00
  Wet Time Step ............ 01:00:00
  Dry Time Step ............ 01:00:00
  Routing Time Step ........ 15.00 sec
  Variable Time Step ....... YES
  Maximum Trials ........... 8
  Number of Threads ........ 1
  Head Tolerance ........... 0.005000 ft
  
  
  **************************        Volume         Depth
  Runoff Quantity Continuity     acre-feet        inches
  **************************     ---------       -------
  Total Precipitation ......       762.487         1.690
  Evaporation Loss .........        20.134         0.045
  Infiltration Loss ........       322.771         0.715
  Surface Runoff ...........       429.502         0.952
  Final Storage ............         0.000         0.000
  Continuity Error (%) .....        -1.301
  
  
  **************************        Volume        Volume
  Flow Routing Continuity        acre-feet      10^6 gal
  **************************     ---------     ---------
  Dry Weather Inflow .......         0.000         0.000
  Wet Weather Inflow .......       429.489       139.955
  Groundwater Inflow .......         0.000         0.000
  RDII Inflow ..............         0.000         0.000
  External Inflow ..........         0.000         0.000
  External Outflow .........       427.009       139.147
  Flooding Loss ............         0.000         0.000
  Evaporation Loss .........         0.125         0.041
  Exfiltration Loss ........         0.000         0.000
  Initial Stored Volume ....         0.001         0.000
  Final Stored Volume ......         1.424         0.464
  Continuity Error (%) .....         0.217
  
  
  *************************
  Highest Continuity Errors
  *************************
  Node TT14-306 (2.23%)
  Node TT14-502 (1.22%)
  
  
  ***************************
  Time-Step Critical Elements
  ***************************
  None
  
  
  ********************************
  Highest Flow Instability Indexes
  ********************************
  All links are stable.
  
  
  *************************
  Routing Time Step Summary
  *************************
  Minimum Time Step           :    12.48 sec
  Average Time Step           :    14.99 sec
  Maximum Time Step           :    15.00 sec
  Percent in Steady State     :     0.00
  Average Iterations per Step :     2.00
  Percent Not Converging      :     0.00
  
  
  ***************************
  Subcatchment Runoff Summary
  ***************************
  
  --------------------------------------------------------------------------------------------------------
                            Total      Total      Total      Total      Total       Total     Peak  Runoff
                           Precip      Runon       Evap      Infil     Runoff      Runoff   Runoff   Coeff
  Subcatchment                 in         in         in         in         in    10^6 gal      CFS
  --------------------------------------------------------------------------------------------------------
  CHEWSTA_shed               1.69       0.00       0.04       0.76       0.91        0.13     0.48   0.538
  CHEWSTB_shed               1.69       0.00       0.01       1.43       0.25        0.06     0.23   0.149
  CLEARVIEW_shed             1.69       0.00       0.05       0.53       1.14        0.09     0.35   0.672
  T14-A1_shed                1.69       0.00       0.05       0.64       1.03        2.76    10.53   0.608
  T14-A2_shed                1.69       0.00       0.04       0.88       0.79        2.97    11.32   0.468
  T14-A3_shed                1.69       0.00       0.04       0.74       0.92        2.48     9.44   0.547
  T14-A4_shed                1.69       0.00       0.06       0.44       1.22        3.05    11.62   0.724
  T14-A5_shed                1.69       0.00       0.07       0.19       1.47        0.61     2.32   0.868
  T14-B_shed                 1.69       0.00       0.05       0.58       1.08        9.64    36.41   0.642
  T14-C1_shed                1.69       0.00       0.07       0.24       1.42        2.87    10.94   0.841
  T14-C2_shed                1.69       0.00       0.06       0.48       1.18        2.32     8.85   0.701
  T14-C3_shed                1.69       0.00       0.05       0.65       1.01        0.81     3.09   0.600
  T14-C4_shed                1.69       0.00       0.06       0.32       1.34        0.65     2.47   0.790
  T14-D_shed                 1.69       0.00       0.04       0.84       0.83        1.84     7.00   0.493
  T14-E_shed                 1.69       0.00       0.05       0.61       1.05        4.38    16.61   0.624
  T14-F_shed                 1.69       0.00       0.02       1.19       0.49        0.32     1.21   0.290
  T14-G_shed                 1.69       0.00       0.05       0.57       1.09        1.65     6.28   0.646
  T14-H_shed                 1.69       0.00       0.05       0.57       1.09        0.06     0.25   0.645
  T14-J_shed                 1.69       0.00       0.06       0.46       1.20        4.83    18.36   0.711
  T14-K1_shed                1.69       0.00       0.05       0.57       1.09        0.76     2.89   0.647
  T14-K2_shed                1.69       0.00       0.06       0.34       1.32        0.92     3.52   0.780
  T14-K3_shed                1.69       0.00       0.05       0.69       0.98        8.70    33.08   0.578
  T14-L1_shed                1.69       0.00       0.07       0.18       1.48        0.27     1.05   0.875
  T14-L2_shed                1.69       0.00       0.05       0.56       1.10        3.15    12.01   0.652
  T14-M1_shed                1.69       0.00       0.05       0.50       1.16        2.12     8.09   0.688
  T14-M2_shed                1.69       0.00       0.05       0.58       1.08        2.28     8.68   0.642
  T14-P1_shed                1.69       0.00       0.03       1.08       0.60        1.73     6.61   0.354
  T14-P2_shed                1.69       0.00       0.04       0.87       0.80        0.79     3.00   0.472
  T14-P3_shed                1.69       0.00       0.04       0.79       0.88        2.27     8.65   0.522
  T14-P4_shed                1.69       0.00       0.04       0.82       0.85        1.40     5.35   0.505
  T14-P5_shed                1.69       0.00       0.03       0.95       0.72        0.61     2.32   0.426
  T14-R1_shed                1.69       0.00       0.05       0.59       1.08        2.15     8.20   0.637
  T14-R2_shed                1.69       0.00       0.04       0.83       0.84        1.46     5.58   0.495
  T14-R3_shed                1.69       0.00       0.05       0.52       1.14        0.92     3.52   0.675
  T14-R4_shed                1.69       0.00       0.06       0.46       1.20        0.76     2.91   0.709
  T14-R5_shed                1.69       0.00       0.04       0.78       0.89        1.75     6.67   0.529
  T14-R6_shed                1.69       0.00       0.04       0.85       0.82        1.35     5.15   0.485
  T14-R7_shed                1.69       0.00       0.03       0.92       0.75        1.51     5.74   0.445
  T14-T_shed                 1.69       0.00       0.06       0.34       1.31        0.22     0.82   0.778
  T14-U_shed                 1.69       0.00       0.06       0.38       1.28        0.47     1.79   0.758
  TT14-262A_shed             1.69       0.00       0.05       0.70       0.97        2.52     9.61   0.575
  TT14-263A_shed             1.69       0.00       0.03       1.04       0.64        0.26     1.00   0.376
  TT14-264A_shed             1.69       0.00       0.05       0.62       1.05        0.63     2.42   0.619
  TT14-264B_shed             1.69       0.00       0.04       0.73       0.93        0.06     0.23   0.553
  TT14-264C_shed             1.69       0.00       0.04       0.79       0.88        0.62     2.38   0.522
  TT14-264D_shed             1.69       0.00       0.05       0.62       1.04        0.63     2.39   0.617
  TT14-264E_shed             1.69       0.00       0.06       0.36       1.30        0.09     0.35   0.769
  TT14-266A_shed             1.69       0.00       0.06       0.32       1.34        0.05     0.21   0.792
  TT14-266B_shed             1.69       0.00       0.07       0.17       1.49        0.15     0.57   0.879
  TT14-270A_shed             1.69       0.00       0.04       0.77       0.89        0.11     0.42   0.529
  TT14-270B_shed             1.69       0.00       0.03       1.10       0.58        0.05     0.19   0.342
  TT14-272A_shed             1.69       0.00       0.03       0.93       0.74        0.07     0.26   0.436
  TT14-274A_shed             1.69       0.00       0.06       0.24       1.42        0.08     0.31   0.837
  TT14-274B_shed             1.69       0.00       0.04       0.67       1.00        0.30     1.15   0.591
  TT14-274C_shed             1.69       0.00       0.05       0.64       1.02        0.46     1.76   0.604
  TT14-278A_shed             1.69       0.00       0.05       0.55       1.11        0.17     0.66   0.657
  TT14-278B_shed             1.69       0.00       0.04       0.70       0.96        0.33     1.27   0.570
  TT14-278C_shed             1.69       0.00       0.06       0.31       1.35        0.10     0.37   0.799
  TT14-280A_shed             1.69       0.00       0.04       0.64       1.02        0.05     0.20   0.604
  TT14-282A_shed             1.69       0.00       0.05       0.60       1.06        1.14     4.37   0.627
  TT14-284A_shed             1.69       0.00       0.04       0.68       0.99        0.08     0.30   0.583
  TT14-284B_shed             1.69       0.00       0.05       0.52       1.14        0.02     0.07   0.675
  TT14-284C_shed             1.69       0.00       0.06       0.24       1.41        0.04     0.14   0.836
  TT14-286A_shed             1.69       0.00       0.06       0.37       1.29        0.09     0.34   0.763
  TT14-288A_shed             1.69       0.00       0.06       0.29       1.37        0.02     0.06   0.808
  TT14-288B_shed             1.69       0.00       0.05       0.49       1.17        0.21     0.80   0.691
  TT14-288C_shed             1.69       0.00       0.03       0.91       0.76        0.07     0.25   0.450
  TT14-291A_shed             1.69       0.00       0.04       0.69       0.98        0.48     1.84   0.580
  TT14-291B_shed             1.69       0.00       0.05       0.58       1.08        0.16     0.60   0.641
  TT14-291C_shed             1.69       0.00       0.07       0.13       1.52        0.02     0.09   0.902
  TT14-291D_shed             1.69       0.00       0.02       1.27       0.41        0.96     3.65   0.245
  TT14-294A_shed             1.69       0.00       0.04       0.67       0.99        0.05     0.19   0.586
  TT14-294B_shed             1.69       0.00       0.05       0.63       1.04        0.02     0.08   0.614
  TT14-294C_shed             1.69       0.00       0.04       0.82       0.85        0.32     1.24   0.502
  TT14-296A_shed             1.69       0.00       0.06       0.31       1.35        0.04     0.13   0.798
  TT14-296B_shed             1.69       0.00       0.04       0.77       0.90        4.56    17.38   0.532
  TT14-502_shed              1.69       0.00       0.03       1.08       0.60        1.83     6.97   0.354
  TT14-524_shed              1.69       0.00       0.05       0.56       1.11        2.56     9.76   0.656
  TT14-530_shed              1.69       0.00       0.06       0.44       1.22        2.97    11.31   0.721
  TT14-544_shed              1.69       0.00       0.05       0.53       1.14        0.96     3.66   0.673
  TT14-552A_shed             1.69       0.00       0.05       0.55       1.12        1.45     5.54   0.661
  TT14-552B_shed             1.69       0.00       0.04       0.74       0.93        2.66    10.13   0.550
  TT14-554_shed              1.69       0.00       0.05       0.63       1.03        0.35     1.34   0.610
  TT14-558_shed              1.69       0.00       0.05       0.61       1.05        3.48    13.22   0.623
  TT14-560_shed              1.69       0.00       0.05       0.65       1.02        0.80     3.06   0.601
  TT14-574_shed              1.69       0.00       0.04       0.84       0.83        3.37    12.84   0.489
  TT14-584_shed              1.69       0.00       0.04       0.74       0.92        3.62    13.77   0.547
  TT14-602A_shed             1.69       0.00       0.06       0.28       1.37        0.07     0.27   0.813
  TT14-602B_shed             1.69       0.00       0.03       0.95       0.72        0.12     0.48   0.427
  TT14-602C_shed             1.69       0.00       0.03       0.97       0.71        0.70     2.69   0.418
  TT14-602D_shed             1.69       0.00       0.04       0.75       0.92        0.10     0.37   0.543
  TT14-606A_shed             1.69       0.00       0.05       0.64       1.03        0.08     0.31   0.607
  TT14-606B_shed             1.69       0.00       0.05       0.61       1.05        0.15     0.58   0.622
  TT14-610A_shed             1.69       0.00       0.05       0.57       1.10        0.02     0.07   0.649
  TT14-610B_shed             1.69       0.00       0.05       0.49       1.17        0.03     0.10   0.692
  TT14-610C_shed             1.69       0.00       0.04       0.86       0.81        1.17     4.46   0.477
  TT14-610D_shed             1.69       0.00       0.04       0.85       0.82        0.08     0.31   0.482
  TT14-612A_shed             1.69       0.00       0.04       0.77       0.89        0.06     0.23   0.529
  TT14-612B_shed             1.69       0.00       0.04       0.66       1.00        0.02     0.08   0.592
  TT14-612C_shed             1.69       0.00       0.05       0.55       1.11        0.18     0.68   0.655
  TT14-614A_shed             1.69       0.00       0.04       0.87       0.80        0.05     0.19   0.474
  TT14-614B_shed             1.69       0.00       0.05       0.58       1.08        0.03     0.10   0.638
  TT14-614C_shed             1.69       0.00       0.05       0.48       1.18        0.14     0.53   0.697
  TT14-616A_shed             1.69       0.00       0.05       0.58       1.08        0.07     0.26   0.639
  TT14-616B_shed             1.69       0.00       0.05       0.58       1.09        0.12     0.45   0.642
  TT14-618A_shed             1.69       0.00       0.05       0.57       1.09        0.42     1.60   0.647
  TT14-620A_shed             1.69       0.00       0.05       0.61       1.05        0.10     0.38   0.624
  TT14-620B_shed             1.69       0.00       0.04       0.84       0.83        2.08     7.94   0.492
  TT14-622A_shed             1.69       0.00       0.05       0.62       1.05        0.12     0.46   0.620
  TT14-624A_shed             1.69       0.00       0.05       0.61       1.05        0.10     0.38   0.624
  TT14-630A_shed             1.69       0.00       0.04       0.81       0.85        0.18     0.68   0.506
  TT14-636A_shed             1.69       0.00       0.05       0.57       1.10        0.03     0.12   0.649
  TT14-636B_shed             1.69       0.00       0.04       0.79       0.88        0.14     0.52   0.521
  TT14-639A_shed             1.69       0.00       0.05       0.60       1.06        0.05     0.19   0.630
  TT14-639B_shed             1.69       0.00       0.03       0.93       0.74        0.20     0.75   0.437
  TT14-639C_shed             1.69       0.00       0.04       0.88       0.79        0.22     0.83   0.469
  TT14-640A_shed             1.69       0.00       0.03       0.95       0.72        0.07     0.26   0.425
  TT14-642A_shed             1.69       0.00       0.02       1.12       0.56        0.36     1.37   0.329
  TT14-642B_shed             1.69       0.00       0.04       0.71       0.96        0.06     0.21   0.565
  TT14-642C_shed             1.69       0.00       0.03       0.92       0.75        0.14     0.52   0.443
  TT14-644A_shed             1.69       0.00       0.03       1.07       0.60        0.06     0.22   0.357
  TT14-646A_shed             1.69       0.00       0.04       0.80       0.87        1.73     6.59   0.513
  TT14-648A_shed             1.69       0.00       0.03       0.99       0.68        0.89     3.40   0.404
  TT14-648B_shed             1.69       0.00       0.04       0.76       0.91        0.09     0.33   0.536
  TT14-658A_shed             1.69       0.00       0.03       0.95       0.72        0.43     1.65   0.429
  TT14-658B_shed             1.69       0.00       0.04       0.80       0.87        0.23     0.87   0.514
  TT14-660A_shed             1.69       0.00       0.03       0.92       0.75        0.07     0.26   0.442
  TT14-666A_shed             1.69       0.00       0.04       0.72       0.95        0.18     0.68   0.561
  TT14-668A_shed             1.69       0.00       0.03       1.05       0.63        0.07     0.25   0.371
  TT14-676A_shed             1.69       0.00       0.03       0.90       0.77        0.08     0.32   0.454
  TT14-684A_shed             1.69       0.00       0.03       0.94       0.73        0.06     0.24   0.434
  TT14-684B_shed             1.69       0.00       0.04       0.71       0.96        0.03     0.12   0.566
  TT14-688A_shed             1.69       0.00       0.04       0.83       0.84        0.04     0.14   0.499
  TT14-688B_shed             1.69       0.00       0.05       0.55       1.11        0.02     0.09   0.658
  TT14-688C_shed             1.69       0.00       0.04       0.65       1.02        0.09     0.34   0.601
  TT14-690A_shed             1.69       0.00       0.04       0.82       0.85        0.12     0.44   0.502
  TT14-690B_shed             1.69       0.00       0.03       0.89       0.78        0.02     0.09   0.459
  TT14-692A_shed             1.69       0.00       0.03       0.90       0.77        0.12     0.46   0.455
  TT14-702_shed              1.69       0.00       0.05       0.54       1.12        1.34     5.11   0.665
  TT14-706_shed              1.69       0.00       0.04       0.75       0.91        1.49     5.70   0.541
  TT14-708_shed              1.69       0.00       0.04       0.90       0.77        1.73     6.59   0.458
  TT14-720_shed              1.69       0.00       0.04       0.71       0.95        3.42    13.04   0.564
  TT14-736_shed              1.69       0.00       0.04       0.78       0.89        2.01     7.67   0.527
  TT14-740_shed              1.69       0.00       0.04       0.84       0.83        1.14     4.33   0.492
  TT14-746_shed              1.69       0.00       0.03       1.02       0.65        0.91     3.47   0.384
  
  
  ******************
  Node Depth Summary
  ******************
  
  ---------------------------------------------------------------------------------
                                 Average  Maximum  Maximum  Time of Max    Reported
                                   Depth    Depth      HGL   Occurrence   Max Depth
  Node                 Type         Feet     Feet     Feet  days hr:min        Feet
  ---------------------------------------------------------------------------------
  TT14-006             JUNCTION     0.05     2.10    29.61    27  13:20        1.99
  TT14-044             JUNCTION     0.10     3.67    46.05    27  13:16        3.56
  TT14-030             JUNCTION     0.05     2.19    38.71    27  13:18        2.09
  TT14-904             JUNCTION     0.03     1.22    44.80    27  13:00        1.22
  TT14-048             JUNCTION     0.05     2.08    46.60    27  13:16        2.00
  TT14-058             JUNCTION     0.08     3.14    52.71    27  13:13        3.06
  TT14-068             JUNCTION     0.06     2.39    55.83    27  13:14        2.33
  TT14-106             JUNCTION     0.03     1.21    55.04    27  13:15        1.17
  TT14-076             JUNCTION     0.08     3.24    60.81    27  13:13        3.16
  TT14-092             JUNCTION     0.07     2.77    70.93    27  13:13        2.70
  TT14-112             JUNCTION     0.03     1.06    69.14    27  13:13        1.03
  TT14-202             JUNCTION     0.02     0.89    73.32    27  13:13        0.86
  TT14-406             JUNCTION     0.01     0.43    78.26    27  13:02        0.43
  TT14-418             JUNCTION     0.01     0.48    87.20    27  13:00        0.48
  TT14-306             JUNCTION     3.64    11.22    80.42    27  13:00       11.22
  TT14-312             JUNCTION     0.01     0.51    90.36    27  13:00        0.51
  TT14-222             JUNCTION     0.04     1.66    84.36    27  13:12        1.61
  TT14-228             JUNCTION     0.03     1.58    89.58    27  13:11        1.53
  TT14-502             JUNCTION     1.50     3.92    96.53    27  13:08        3.91
  TT14-524             JUNCTION     0.06     2.25   126.88    27  13:05        2.23
  TT14-240             JUNCTION     0.02     0.71   120.35    27  13:10        0.69
  TT14-243             JUNCTION     0.01     0.69   129.24    27  13:09        0.67
  TT14-248             JUNCTION     0.01     0.62   142.14    27  13:08        0.61
  TT14-546             JUNCTION     0.04     1.72   161.19    27  13:04        1.70
  TT14-530             JUNCTION     0.05     1.97   136.69    27  13:05        1.95
  TT14-262             JUNCTION     0.11     3.87   164.87    27  13:07        3.82
  TT14-814             JUNCTION     0.01     0.58   173.47    27  13:05        0.58
  TT14-263             JUNCTION     0.04     1.68   170.87    27  13:06        1.66
  TT14-828             JUNCTION     0.01     0.56   199.99    27  13:03        0.55
  TT14-834             JUNCTION     0.01     0.40   218.31    27  13:00        0.40
  TT14-264             JUNCTION     0.04     1.73   181.89    27  13:05        1.72
  TT14-268             JUNCTION     0.04     1.65   193.19    27  13:05        1.63
  TT14-554             JUNCTION     0.05     1.77   173.47    27  13:03        1.76
  TT14-560             JUNCTION     0.04     1.65   187.25    27  13:03        1.64
  TT14-574             JUNCTION     0.04     1.58   200.20    27  13:04        1.57
  TT14-582             JUNCTION     0.04     1.64   206.16    27  13:04        1.62
  TT14-275             JUNCTION     0.04     1.67   202.06    27  13:04        1.66
  TT14-280             JUNCTION     0.04     1.65   210.13    27  13:04        1.63
  TT14-286             JUNCTION     0.04     1.60   215.89    27  13:03        1.59
  TT14-291             JUNCTION     0.04     1.56   223.96    27  13:03        1.56
  TT14-296             JUNCTION     0.04     1.65   230.13    27  13:02        1.64
  TT14-606             JUNCTION     0.01     0.67   233.58    27  13:03        0.66
  TT14-746             JUNCTION     0.01     0.45   319.49    27  13:00        0.45
  TT14-738             JUNCTION     0.01     0.39   304.10    27  13:01        0.39
  TT14-716             JUNCTION     0.01     0.59   269.40    27  13:02        0.59
  TT14-708             JUNCTION     0.01     0.63   261.13    27  13:01        0.63
  TT14-702             JUNCTION     0.03     1.10   250.00    27  13:03        1.09
  TT14-612             JUNCTION     0.03     1.28   243.81    27  13:01        1.28
  TT14-616             JUNCTION     0.03     1.06   246.98    27  13:01        1.06
  TT14-622             JUNCTION     0.02     1.01   252.35    27  13:00        1.01
  TT14-636             JUNCTION     0.01     0.45   261.29    27  13:03        0.44
  TT14-639             JUNCTION     0.03     1.11   264.79    27  13:02        1.10
  TT14-642             JUNCTION     0.02     0.89   269.31    27  13:01        0.89
  TT14-646             JUNCTION     0.02     0.84   275.27    27  13:00        0.83
  TT14-660             JUNCTION     0.01     0.45   306.68    27  13:01        0.44
  TT14-666             JUNCTION     0.01     0.44   311.44    27  13:03        0.43
  TT14-676             JUNCTION     0.01     0.42   316.42    27  13:03        0.42
  TT14-688             JUNCTION     0.01     0.41   321.41    27  13:01        0.41
  TT14-692             JUNCTION     0.01     0.23   326.23    27  13:00        0.23
  TT14-848             JUNCTION     0.01     0.50   244.69    27  13:00        0.50
  TT14-016             JUNCTION     0.06     2.44    31.40    27  13:20        2.31
  T14_1_1090           JUNCTION     0.08     3.28    40.22    27  13:18        3.14
  T14_1_1160           JUNCTION     0.10     3.78    41.51    27  13:15        3.68
  T14_1_1440_west_split JUNCTION     0.03     1.06    48.73    27  13:18        1.01
  T14_1_2390_east      JUNCTION     0.05     2.62    71.26    27  13:12        2.56
  T14_1_2410           JUNCTION     0.03     1.70    70.92    27  13:12        1.66
  T14_1_1520_west      JUNCTION     0.03     1.34    69.82    27  13:08        1.31
  T14_2_230            JUNCTION     0.02     0.96   113.86    27  13:07        0.94
  T14_2_2040           JUNCTION     0.01     0.43   273.81    27  13:05        0.42
  T14_2_2070           JUNCTION     0.03     1.22   274.95    27  13:04        1.20
  T14_2_2120           JUNCTION     0.01     0.41   276.79    27  13:03        0.41
  T14_2_2530           JUNCTION     0.00     0.18   310.48    27  13:01        0.17
  T14_3_640            JUNCTION     0.01     0.61   160.51    27  13:08        0.60
  T14_3_3_10           JUNCTION     0.05     1.58   168.39    27  13:07        1.55
  T14_3_1340           JUNCTION     0.02     0.76   238.27    27  13:02        0.75
  O1                   OUTFALL      0.04     2.10    26.10    27  13:21        1.99
  
  
  *******************
  Node Inflow Summary
  *******************
  
  -------------------------------------------------------------------------------------------------
                                  Maximum  Maximum                  Lateral       Total        Flow
                                  Lateral    Total  Time of Max      Inflow      Inflow     Balance
                                   Inflow   Inflow   Occurrence      Volume      Volume       Error
  Node                 Type           CFS      CFS  days hr:min    10^6 gal    10^6 gal     Percent
  -------------------------------------------------------------------------------------------------
  TT14-006             JUNCTION     10.53   482.68    27  13:20        2.76         139      -0.000
  TT14-044             JUNCTION     11.62   428.08    27  13:15        3.05         121      -0.003
  TT14-030             JUNCTION      9.44   466.21    27  13:16        2.48         133       0.003
  TT14-904             JUNCTION     36.41    36.41    27  13:00        9.64        9.64      -0.051
  TT14-048             JUNCTION     13.26   418.51    27  13:15        3.48         118       0.004
  TT14-058             JUNCTION      8.85   256.75    27  13:13        2.32        68.1      -0.008
  TT14-068             JUNCTION      5.56   249.21    27  13:13        1.46        65.7       0.001
  TT14-106             JUNCTION      7.00   151.46    27  13:11        1.84        46.7       0.001
  TT14-076             JUNCTION     24.10   244.62    27  13:11        6.35        64.3      -0.006
  TT14-092             JUNCTION      0.25   223.88    27  13:12      0.0648        57.9       0.006
  TT14-112             JUNCTION      2.62   145.50    27  13:10       0.685        44.9      -0.001
  TT14-202             JUNCTION      8.09   303.88    27  13:12        2.12        83.8      -0.001
  TT14-406             JUNCTION      1.05    12.97    27  13:00       0.275        3.43      -0.005
  TT14-418             JUNCTION     12.01    12.01    27  13:00        3.15        3.15      -0.009
  TT14-306             JUNCTION     21.25    57.75    27  13:00        5.59        15.2       2.281
  TT14-312             JUNCTION     36.60    36.60    27  13:00        9.63        9.63      -0.016
  TT14-222             JUNCTION      8.68   297.09    27  13:11        2.28        81.6       0.001
  TT14-228             JUNCTION      6.61   290.38    27  13:08        1.73        79.4      -0.003
  TT14-502             JUNCTION      6.97   131.76    27  13:06        1.83        36.1       1.237
  TT14-524             JUNCTION      9.76   125.53    27  13:04        2.56        34.3      -0.004
  TT14-240             JUNCTION      3.00   153.09    27  13:08       0.785          42      -0.001
  TT14-243             JUNCTION      8.65   150.43    27  13:08        2.27        41.2      -0.008
  TT14-248             JUNCTION      5.35   142.60    27  13:07         1.4          39      -0.001
  TT14-546             JUNCTION      3.66   105.64    27  13:03        0.96        28.7       0.002
  TT14-530             JUNCTION     11.31   116.39    27  13:03        2.97        31.7       0.002
  TT14-262             JUNCTION     20.13   137.97    27  13:05        5.28        37.6       0.002
  TT14-814             JUNCTION      5.58    28.81    27  13:02        1.46        7.75       0.000
  TT14-263             JUNCTION      1.00    90.72    27  13:05       0.262        24.5      -0.000
  TT14-828             JUNCTION      6.44    23.82    27  13:00        1.69        6.29       0.000
  TT14-834             JUNCTION     11.82    17.51    27  13:00         3.1         4.6      -0.009
  TT14-264             JUNCTION      7.77    89.81    27  13:04        2.03        24.3      -0.005
  TT14-268             JUNCTION      1.38    82.51    27  13:04       0.362        22.2       0.008
  TT14-554             JUNCTION     17.01   102.10    27  13:02        4.46        27.8      -0.006
  TT14-560             JUNCTION     16.29    85.69    27  13:02        4.28        23.3       0.001
  TT14-574             JUNCTION     12.84    70.04    27  13:03        3.37          19      -0.001
  TT14-582             JUNCTION     13.77    57.98    27  13:02        3.62        15.7       0.004
  TT14-275             JUNCTION      4.19    81.20    27  13:03         1.1        21.9      -0.007
  TT14-280             JUNCTION      6.86    77.20    27  13:03         1.8        20.8      -0.002
  TT14-286             JUNCTION      2.31    70.62    27  13:03       0.605          19       0.003
  TT14-291             JUNCTION      6.18    68.43    27  13:01        1.62        18.4      -0.002
  TT14-296             JUNCTION     22.81    62.45    27  13:00        5.99        16.7      -0.001
  TT14-606             JUNCTION      0.89    40.30    27  13:03       0.233        10.8      -0.001
  TT14-746             JUNCTION      3.47     3.47    27  13:00       0.908       0.908      -0.007
  TT14-738             JUNCTION     12.00    15.43    27  13:00        3.15        4.05      -0.016
  TT14-716             JUNCTION     13.04    27.82    27  13:00        3.42        7.48      -0.005
  TT14-708             JUNCTION     12.29    39.86    27  13:00        3.22        10.7      -0.003
  TT14-702             JUNCTION      5.11    44.79    27  13:01        1.34          12      -0.002
  TT14-612             JUNCTION      5.93    39.46    27  13:01        1.55        10.5      -0.003
  TT14-616             JUNCTION      1.53    33.63    27  13:00         0.4        8.97       0.002
  TT14-622             JUNCTION     11.43    32.11    27  13:00           3        8.57      -0.002
  TT14-636             JUNCTION      0.64    20.98    27  13:02       0.168        5.57      -0.001
  TT14-639             JUNCTION      1.78    20.38    27  13:01       0.465        5.41      -0.003
  TT14-642             JUNCTION      2.57    18.64    27  13:00       0.674        4.94       0.000
  TT14-646             JUNCTION     10.33    16.15    27  13:00        2.71        4.27      -0.004
  TT14-660             JUNCTION      2.78     5.87    27  13:00       0.728        1.56      -0.002
  TT14-666             JUNCTION      0.93     3.12    27  13:01       0.243       0.832       0.011
  TT14-676             JUNCTION      0.32     2.23    27  13:01      0.0832       0.589       0.041
  TT14-688             JUNCTION      0.94     1.93    27  13:00       0.245       0.506      -0.041
  TT14-692             JUNCTION      1.00     1.00    27  13:00       0.261       0.261      -0.016
  TT14-848             JUNCTION      5.74     5.74    27  13:00        1.51        1.51      -0.005
  TT14-016             JUNCTION     11.32   474.80    27  13:18        2.97         136       0.001
  T14_1_1090           JUNCTION      0.00   428.39    27  13:18           0         121       0.003
  T14_1_1160           JUNCTION      0.00   427.96    27  13:16           0         121       0.000
  T14_1_1440_west_split JUNCTION      0.00   151.11    27  13:16           0        46.7       0.001
  T14_1_2390_east      JUNCTION      0.00   223.71    27  13:11           0        57.9      -0.001
  T14_1_2410           JUNCTION      0.00   355.12    27  13:10           0        98.6       0.004
  T14_1_1520_west      JUNCTION      0.00   143.12    27  13:10           0        44.2      -0.001
  T14_2_230            JUNCTION      0.00   125.50    27  13:05           0        34.3       0.003
  T14_2_2040           JUNCTION      0.00    15.18    27  13:04           0        4.05      -0.000
  T14_2_2070           JUNCTION      0.00    15.22    27  13:03           0        4.05      -0.004
  T14_2_2120           JUNCTION      0.00    15.30    27  13:01           0        4.05      -0.001
  T14_2_2530           JUNCTION      0.00     3.46    27  13:00           0       0.908      -0.022
  T14_3_640            JUNCTION      0.00   137.72    27  13:07           0        37.6      -0.003
  T14_3_3_10           JUNCTION      0.00    28.56    27  13:05           0        7.75      -0.000
  T14_3_1340           JUNCTION      0.00    39.45    27  13:02           0        10.5      -0.001
  O1                   OUTFALL       0.00   482.63    27  13:21           0         139       0.000
  
  
  **********************
  Node Surcharge Summary
  **********************
  
  No nodes were surcharged.
  
  
  *********************
  Node Flooding Summary
  *********************
  
  No nodes were flooded.
  
  
  ***********************
  Outfall Loading Summary
  ***********************
  
  -----------------------------------------------------------
                         Flow       Avg       Max       Total
                         Freq      Flow      Flow      Volume
  Outfall Node           Pcnt       CFS       CFS    10^6 gal
  -----------------------------------------------------------
  O1                    37.95     18.72    482.63     139.137
  -----------------------------------------------------------
  System                37.95     18.72    482.63     139.137
  
  
  ********************
  Link Flow Summary
  ********************
  
  -----------------------------------------------------------------------------
                                 Maximum  Time of Max   Maximum    Max/    Max/
                                  |Flow|   Occurrence   |Veloc|    Full    Full
  Link                 Type          CFS  days hr:min    ft/sec    Flow   Depth
  -----------------------------------------------------------------------------
  C1                   CONDUIT    474.43    27  13:20      8.70    0.07    0.11
  C2                   CONDUIT    465.72    27  13:19      8.39    0.06    0.11
  C3                   CONDUIT     36.33    27  13:00      7.42    0.07    0.24
  C4                   CONDUIT    428.39    27  13:19      7.12    0.11    0.14
  C5                   CONDUIT    428.39    27  13:18     11.80    0.07    0.19
  C6                   CONDUIT    427.96    27  13:16     10.91    0.08    0.20
  C7                   CONDUIT    418.42    27  13:16      6.92    0.05    0.16
  C8                   CONDUIT    150.95    27  13:18      5.66    0.02    0.10
  C9                   CONDUIT    151.11    27  13:16      6.35    0.05    0.09
  C10                  CONDUIT    145.38    27  13:13      7.53    0.02    0.07
  C11                  CONDUIT    244.45    27  13:13     10.27    0.08    0.18
  C12                  CONDUIT    223.76    27  13:13      9.24    0.09    0.21
  C13                  CONDUIT    256.80    27  13:14     11.43    0.06    0.15
  C14                  CONDUIT    249.18    27  13:14     10.25    0.04    0.16
  C15                  CONDUIT    223.66    27  13:12      5.93    0.10    0.19
  C16                  CONDUIT     57.58    27  13:00     11.27    0.04    0.18
  C17                  CONDUIT    211.83    27  13:12      8.52    0.22    0.36
  C18                  CONDUIT    143.12    27  13:10     10.26    0.15    0.25
  C19                  CONDUIT    143.18    27  13:11      7.45    0.03    0.09
  C20                  CONDUIT    303.80    27  13:13     13.77    0.02    0.09
  C21                  CONDUIT     36.54    27  13:00      1.52    0.01    0.53
  C22                  CONDUIT     12.90    27  13:02      2.63    0.03    0.25
  C23                  CONDUIT     11.93    27  13:01      5.22    0.03    0.08
  C24                  CONDUIT    296.87    27  13:13     11.62    0.04    0.09
  C25                  CONDUIT    289.46    27  13:11     10.51    0.04    0.11
  C26                  CONDUIT    131.69    27  13:08      7.32    0.01    0.08
  C27                  CONDUIT    125.32    27  13:07      3.67    0.04    0.26
  C28                  CONDUIT    125.50    27  13:05     15.40    0.07    0.16
  C29                  CONDUIT    116.25    27  13:05      9.92    0.09    0.22
  C30                  CONDUIT    105.55    27  13:04     11.28    0.08    0.20
  C31                  CONDUIT    102.10    27  13:03     12.20    0.09    0.21
  C32                  CONDUIT     85.61    27  13:03     10.53    0.08    0.20
  C33                  CONDUIT     69.96    27  13:04      9.34    0.08    0.19
  C34                  CONDUIT     57.70    27  13:04      7.74    0.08    0.19
  C35                  CONDUIT     44.60    27  13:03      7.55    0.04    0.16
  C36                  CONDUIT     39.77    27  13:02      6.14    0.03    0.11
  C37                  CONDUIT     27.72    27  13:02      6.07    0.03    0.08
  C38                  CONDUIT     15.17    27  13:05      3.99    0.02    0.07
  C39                  CONDUIT     15.18    27  13:04      6.51    0.04    0.14
  C40                  CONDUIT     15.22    27  13:03      3.12    0.02    0.14
  C41                  CONDUIT     15.30    27  13:01      6.36    0.02    0.05
  C42                  CONDUIT      3.45    27  13:01      2.42    0.01    0.05
  C43                  CONDUIT      3.46    27  13:00      6.76    0.01    0.06
  C44                  CONDUIT    152.92    27  13:10      6.09    0.01    0.09
  C45                  CONDUIT    150.38    27  13:09     10.06    0.01    0.05
  C46                  CONDUIT    142.55    27  13:08     10.13    0.01    0.05
  C47                  CONDUIT    137.70    27  13:08     10.36    0.01    0.05
  C48                  CONDUIT    137.72    27  13:07      9.44    0.19    0.19
  C49                  CONDUIT     28.50    27  13:07      4.90    0.12    0.21
  C50                  CONDUIT     28.56    27  13:05      3.31    0.03    0.15
  C51                  CONDUIT     23.40    27  13:03      5.48    0.03    0.09
  C52                  CONDUIT     17.42    27  13:01      6.10    0.02    0.08
  C53                  CONDUIT      5.71    27  13:00      6.49    0.02    0.09
  C54                  CONDUIT     90.69    27  13:06      5.44    0.08    0.31
  C55                  CONDUIT     89.78    27  13:05     11.04    0.09    0.20
  C56                  CONDUIT     82.46    27  13:05     10.30    0.08    0.20
  C57                  CONDUIT     81.19    27  13:04     10.43    0.08    0.19
  C58                  CONDUIT     77.17    27  13:04     10.09    0.09    0.20
  C59                  CONDUIT     70.59    27  13:03      9.51    0.08    0.20
  C60                  CONDUIT     68.38    27  13:03      9.55    0.08    0.19
  C61                  CONDUIT     62.39    27  13:02      8.52    0.09    0.19
  C62                  CONDUIT     40.26    27  13:04      3.87    0.02    0.12
  C63                  CONDUIT     39.44    27  13:03      6.93    0.02    0.06
  C64                  CONDUIT     39.45    27  13:02     10.96    0.05    0.14
  C65                  CONDUIT     33.61    27  13:01      7.60    0.04    0.16
  C66                  CONDUIT     32.11    27  13:01      8.71    0.04    0.14
  C67                  CONDUIT     20.94    27  13:03      6.69    0.01    0.04
  C68                  CONDUIT     20.35    27  13:02      8.68    0.03    0.11
  C69                  CONDUIT     18.62    27  13:01      6.00    0.05    0.17
  C70                  CONDUIT     16.09    27  13:01      6.41    0.04    0.14
  C71                  CONDUIT      5.85    27  13:01      4.51    0.03    0.16
  C72                  CONDUIT      3.11    27  13:03      4.44    0.03    0.13
  C73                  CONDUIT      2.21    27  13:03      3.28    0.03    0.12
  C74                  CONDUIT      1.91    27  13:01      2.98    0.03    0.12
  C75                  CONDUIT      0.99    27  13:00      2.45    0.01    0.11
  outflow              CONDUIT    482.63    27  13:21      9.56    0.05    0.10
  
  
  ***************************
  Flow Classification Summary
  ***************************
  
  -------------------------------------------------------------------------------------
                      Adjusted    ---------- Fraction of Time in Flow Class ---------- 
                       /Actual         Up    Down  Sub   Sup   Up    Down  Norm  Inlet 
  Conduit               Length    Dry  Dry   Dry   Crit  Crit  Crit  Crit  Ltd   Ctrl  
  -------------------------------------------------------------------------------------
  C1                      1.00   0.35  0.02  0.00  0.62  0.00  0.00  0.00  0.94  0.00
[...]
  OCT-19-2008 03:00:00      0.000     0.000     0.000    24.000
  OCT-19-2008 04:00:00      0.000     0.000     0.000    24.000
  OCT-19-2008 05:00:00      0.000     0.000     0.000    24.000
  OCT-19-2008 06:00:00      0.000     0.000     0.000    24.000
  OCT-19-2008 07:00:00      0.000     0.000     0.000    24.000
  OCT-19-2008 08:00:00      0.000     0.000     0.000    24.000
  OCT-19-2008 09:00:00      0.000     0.000     0.000    24.000
  OCT-19-2008 10:00:00      0.000     0.000     0.000    24.000
  OCT-19-2008 11:00:00      0.000     0.000     0.000    24.000
  OCT-19-2008 12:00:00      0.000     0.000     0.000    24.000
  OCT-19-2008 13:00:00      0.000     0.000     0.000    24.000
  OCT-19-2008 14:00:00      0.000     0.000     0.000    24.000
  OCT-19-2008 15:00:00      0.000     0.000     0.000    24.000
  OCT-19-2008 16:00:00      0.000     0.000     0.000    24.000
  OCT-19-2008 17:00:00      0.000     0.000     0.000    24.000
  OCT-19-2008 18:00:00      0.000     0.000     0.000    24.000
  OCT-19-2008 19:00:00      0.000     0.000     0.000    24.000
  OCT-19-2008 20:00:00      0.000     0.000     0.000    24.000
  OCT-19-2008 21:00:00      0.000     0.000     0.000    24.000
  OCT-19-2008 22:00:00      0.000     0.000     0.000    24.000
  OCT-19-2008 23:00:00      0.000     0.000     0.000    24.000
  OCT-20-2008 00:00:00      0.000     0.000     0.000    24.000
  OCT-20-2008 01:00:00      0.000     0.000     0.000    24.000
  OCT-20-2008 02:00:00      0.000     0.000     0.000    24.000
  OCT-20-2008 03:00:00      0.000     0.000     0.000    24.000
  OCT-20-2008 04:00:00      0.000     0.000     0.000    24.000
  OCT-20-2008 05:00:00      0.000     0.000     0.000    24.000
  OCT-20-2008 06:00:00      0.000     0.000     0.000    24.000
  OCT-20-2008 07:00:00      0.000     0.000     0.000    24.000
  OCT-20-2008 08:00:00      0.000     0.000     0.000    24.000
  OCT-20-2008 09:00:00      0.000     0.000     0.000    24.000
  OCT-20-2008 10:00:00      0.000     0.000     0.000    24.000
  OCT-20-2008 11:00:00      0.000     0.000     0.000    24.000
  OCT-20-2008 12:00:00      0.000     0.000     0.000    24.000
  OCT-20-2008 13:00:00      0.000     0.000     0.000    24.000
  OCT-20-2008 14:00:00      0.000     0.000     0.000    24.000
  OCT-20-2008 15:00:00      0.000     0.000     0.000    24.000
  OCT-20-2008 16:00:00      0.000     0.000     0.000    24.000
  OCT-20-2008 17:00:00      0.000     0.000     0.000    24.000
  OCT-20-2008 18:00:00      0.000     0.000     0.000    24.000
  OCT-20-2008 19:00:00      0.000     0.000     0.000    24.000
  OCT-20-2008 20:00:00      0.000     0.000     0.000    24.000
  OCT-20-2008 21:00:00      0.000     0.000     0.000    24.000
  OCT-20-2008 22:00:00      0.000     0.000     0.000    24.000
  OCT-20-2008 23:00:00      0.000     0.000     0.000    24.000
  OCT-21-2008 00:00:00      0.000     0.000     0.000    24.000
  OCT-21-2008 01:00:00      0.000     0.000     0.000    24.000
  OCT-21-2008 02:00:00      0.000     0.000     0.000    24.000
  OCT-21-2008 03:00:00      0.000     0.000     0.000    24.000
  OCT-21-2008 04:00:00      0.000     0.000     0.000    24.000
  OCT-21-2008 05:00:00      0.000     0.000     0.000    24.000
  OCT-21-2008 06:00:00      0.000     0.000     0.000    24.000
  OCT-21-2008 07:00:00      0.000     0.000     0.000    24.000
  OCT-21-2008 08:00:00      0.000     0.000     0.000    24.000
  OCT-21-2008 09:00:00      0.000     0.000     0.000    24.000
  OCT-21-2008 10:00:00      0.000     0.000     0.000    24.000
  OCT-21-2008 11:00:00      0.000     0.000     0.000    24.000
  OCT-21-2008 12:00:00      0.000     0.000     0.000    24.000
  OCT-21-2008 13:00:00      0.000     0.000     0.000    24.000
  OCT-21-2008 14:00:00      0.000     0.000     0.000    24.000
  OCT-21-2008 15:00:00      0.000     0.000     0.000    24.000
  OCT-21-2008 16:00:00      0.000     0.000     0.000    24.000
  OCT-21-2008 17:00:00      0.000     0.000     0.000    24.000
  OCT-21-2008 18:00:00      0.000     0.000     0.000    24.000
  OCT-21-2008 19:00:00      0.000     0.000     0.000    24.000
  OCT-21-2008 20:00:00      0.000     0.000     0.000    24.000
  OCT-21-2008 21:00:00      0.000     0.000     0.000    24.000
  OCT-21-2008 22:00:00      0.000     0.000     0.000    24.000
  OCT-21-2008 23:00:00      0.000     0.000     0.000    24.000
  OCT-22-2008 00:00:00      0.000     0.000     0.000    24.000
  OCT-22-2008 01:00:00      0.000     0.000     0.000    24.000
  OCT-22-2008 02:00:00      0.000     0.000     0.000    24.000
  OCT-22-2008 03:00:00      0.000     0.000     0.000    24.000
  OCT-22-2008 04:00:00      0.000     0.000     0.000    24.000
  OCT-22-2008 05:00:00      0.000     0.000     0.000    24.000
  OCT-22-2008 06:00:00      0.000     0.000     0.000    24.000
  OCT-22-2008 07:00:00      0.000     0.000     0.000    24.000
  OCT-22-2008 08:00:00      0.000     0.000     0.000    24.000
  OCT-22-2008 09:00:00      0.000     0.000     0.000    24.000
  OCT-22-2008 10:00:00      0.000     0.000     0.000    24.000
  OCT-22-2008 11:00:00      0.000     0.000     0.000    24.000
  OCT-22-2008 12:00:00      0.000     0.000     0.000    24.000
  OCT-22-2008 13:00:00      0.000     0.000     0.000    24.000
  OCT-22-2008 14:00:00      0.000     0.000     0.000    24.000
  OCT-22-2008 15:00:00      0.000     0.000     0.000    24.000
  OCT-22-2008 16:00:00      0.000     0.000     0.000    24.000
  OCT-22-2008 17:00:00      0.000     0.000     0.000    24.000
  OCT-22-2008 18:00:00      0.000     0.000     0.000    24.000
  OCT-22-2008 19:00:00      0.000     0.000     0.000    24.000
  OCT-22-2008 20:00:00      0.000     0.000     0.000    24.000
  OCT-22-2008 21:00:00      0.000     0.000     0.000    24.000
  OCT-22-2008 22:00:00      0.000     0.000     0.000    24.000
  OCT-22-2008 23:00:00      0.000     0.000     0.000    24.000
  OCT-23-2008 00:00:00      0.000     0.000     0.000    24.000
  OCT-23-2008 01:00:00      0.000     0.000     0.000    24.000
  OCT-23-2008 02:00:00      0.000     0.000     0.000    24.000
  OCT-23-2008 03:00:00      0.000     0.000     0.000    24.000
  OCT-23-2008 04:00:00      0.000     0.000     0.000    24.000
  OCT-23-2008 05:00:00      0.000     0.000     0.000    24.000
  OCT-23-2008 06:00:00      0.000     0.000     0.000    24.000
  OCT-23-2008 07:00:00      0.000     0.000     0.000    24.000
  OCT-23-2008 08:00:00      0.000     0.000     0.000    24.000
  OCT-23-2008 09:00:00      0.000     0.000     0.000    24.000
  OCT-23-2008 10:00:00      0.000     0.000     0.000    24.000
  OCT-23-2008 11:00:00      0.000     0.000     0.000    24.000
  OCT-23-2008 12:00:00      0.000     0.000     0.000    24.000
  OCT-23-2008 13:00:00      0.000     0.000     0.000    24.000
  OCT-23-2008 14:00:00      0.000     0.000     0.000    24.000
  OCT-23-2008 15:00:00      0.000     0.000     0.000    24.000
  OCT-23-2008 16:00:00      0.000     0.000     0.000    24.000
  OCT-23-2008 17:00:00      0.000     0.000     0.000    24.000
  OCT-23-2008 18:00:00      0.000     0.000     0.000    24.000
  OCT-23-2008 19:00:00      0.000     0.000     0.000    24.000
  OCT-23-2008 20:00:00      0.000     0.000     0.000    24.000
  OCT-23-2008 21:00:00      0.000     0.000     0.000    24.000
  OCT-23-2008 22:00:00      0.000     0.000     0.000    24.000
  OCT-23-2008 23:00:00      0.000     0.000     0.000    24.000
  OCT-24-2008 00:00:00      0.000     0.000     0.000    24.000
  OCT-24-2008 01:00:00      0.000     0.000     0.000    24.000
  OCT-24-2008 02:00:00      0.000     0.000     0.000    24.000
  OCT-24-2008 03:00:00      0.000     0.000     0.000    24.000
  OCT-24-2008 04:00:00      0.000     0.000     0.000    24.000
  OCT-24-2008 05:00:00      0.000     0.000     0.000    24.000
  OCT-24-2008 06:00:00      0.000     0.000     0.000    24.000
  OCT-24-2008 07:00:00      0.000     0.000     0.000    24.000
  OCT-24-2008 08:00:00      0.000     0.000     0.000    24.000
  OCT-24-2008 09:00:00      0.000     0.000     0.000    24.000
  OCT-24-2008 10:00:00      0.000     0.000     0.000    24.000
  OCT-24-2008 11:00:00      0.000     0.000     0.000    24.000
  OCT-24-2008 12:00:00      0.000     0.000     0.000    24.000
  OCT-24-2008 13:00:00      0.000     0.000     0.000    24.000
  OCT-24-2008 14:00:00      0.000     0.000     0.000    24.000
  OCT-24-2008 15:00:00      0.000     0.000     0.000    24.000
  OCT-24-2008 16:00:00      0.000     0.000     0.000    24.000
  OCT-24-2008 17:00:00      0.000     0.000     0.000    24.000
  OCT-24-2008 18:00:00      0.000     0.000     0.000    24.000
  OCT-24-2008 19:00:00      0.000     0.000     0.000    24.000
  OCT-24-2008 20:00:00      0.000     0.000     0.000    24.000
  OCT-24-2008 21:00:00      0.000     0.000     0.000    24.000
  OCT-24-2008 22:00:00      0.000     0.000     0.000    24.000
  OCT-24-2008 23:00:00      0.000     0.000     0.000    24.000
  OCT-25-2008 00:00:00      0.000     0.000     0.000    24.000
  OCT-25-2008 01:00:00      0.000     0.000     0.000    24.000
  OCT-25-2008 02:00:00      0.000     0.000     0.000    24.000
  OCT-25-2008 03:00:00      0.000     0.000     0.000    24.000
  OCT-25-2008 04:00:00      0.000     0.000     0.000    24.000
  OCT-25-2008 05:00:00      0.000     0.000     0.000    24.000
  OCT-25-2008 06:00:00      0.000     0.000     0.000    24.000
  OCT-25-2008 07:00:00      0.000     0.000     0.000    24.000
  OCT-25-2008 08:00:00      0.000     0.000     0.000    24.000
  OCT-25-2008 09:00:00      0.000     0.000     0.000    24.000
  OCT-25-2008 10:00:00      0.000     0.000     0.000    24.000
  OCT-25-2008 11:00:00      0.000     0.000     0.000    24.000
  OCT-25-2008 12:00:00      0.000     0.000     0.000    24.000
  OCT-25-2008 13:00:00      0.000     0.000     0.000    24.000
  OCT-25-2008 14:00:00      3.884     0.000     0.031    24.031
  OCT-25-2008 15:00:00     71.727     0.000     0.575    24.575
  OCT-25-2008 16:00:00    246.405     0.000     1.376    25.376
  OCT-25-2008 17:00:00    339.717     0.000     1.683    25.683
  OCT-25-2008 18:00:00    287.285     0.000     1.515    25.515
  OCT-25-2008 19:00:00    102.931     0.000     0.801    24.801
  OCT-25-2008 20:00:00     73.321     0.000     0.587    24.587
  OCT-25-2008 21:00:00    115.471     0.000     0.859    24.859
  OCT-25-2008 22:00:00    118.710     0.000     0.874    24.874
  OCT-25-2008 23:00:00    182.604     0.000     1.141    25.141
  OCT-26-2008 00:00:00     49.819     0.000     0.399    24.399
  OCT-26-2008 01:00:00     16.489     0.000     0.132    24.132
  OCT-26-2008 02:00:00      7.389     0.000     0.059    24.059
  OCT-26-2008 03:00:00      3.929     0.000     0.031    24.031
  OCT-26-2008 04:00:00      2.318     0.000     0.019    24.019
  OCT-26-2008 05:00:00      1.462     0.000     0.012    24.012
  OCT-26-2008 06:00:00      0.975     0.000     0.008    24.008
  OCT-26-2008 07:00:00      1.380     0.000     0.011    24.011
  OCT-26-2008 08:00:00      2.390     0.000     0.019    24.019
  OCT-26-2008 09:00:00      3.650     0.000     0.029    24.029
  OCT-26-2008 10:00:00      5.782     0.000     0.046    24.046
  OCT-26-2008 11:00:00      3.748     0.000     0.030    24.030
  OCT-26-2008 12:00:00      2.297     0.000     0.018    24.018
  OCT-26-2008 13:00:00      1.464     0.000     0.012    24.012
  OCT-26-2008 14:00:00      0.985     0.000     0.008    24.008
  OCT-26-2008 15:00:00      0.692     0.000     0.006    24.006
  OCT-26-2008 16:00:00      0.503     0.000     0.004    24.004
  OCT-26-2008 17:00:00      0.376     0.000     0.003    24.003
  OCT-26-2008 18:00:00      0.286     0.000     0.002    24.002
  OCT-26-2008 19:00:00      0.222     0.000     0.002    24.002
  OCT-26-2008 20:00:00      0.176     0.000     0.001    24.001
  OCT-26-2008 21:00:00      0.141     0.000     0.001    24.001
  OCT-26-2008 22:00:00      0.115     0.000     0.001    24.001
  OCT-26-2008 23:00:00      0.095     0.000     0.001    24.001
  OCT-27-2008 00:00:00      0.080     0.000     0.001    24.001
  OCT-27-2008 01:00:00      0.068     0.000     0.001    24.001
  OCT-27-2008 02:00:00      0.058     0.000     0.000    24.000
  OCT-27-2008 03:00:00      0.050     0.000     0.000    24.000
  OCT-27-2008 04:00:00      0.044     0.000     0.000    24.000
  OCT-27-2008 05:00:00      0.024     0.000     0.000    24.000
  OCT-27-2008 06:00:00      0.028     0.000     0.000    24.000
  OCT-27-2008 07:00:00      0.028     0.000     0.000    24.000
  OCT-27-2008 08:00:00      0.026     0.000     0.000    24.000
  OCT-27-2008 09:00:00      0.024     0.000     0.000    24.000
  OCT-27-2008 10:00:00      0.022     0.000     0.000    24.000
  OCT-27-2008 11:00:00      0.020     0.000     0.000    24.000
  OCT-27-2008 12:00:00      0.018     0.000     0.000    24.000
  OCT-27-2008 13:00:00      0.016     0.000     0.000    24.000
  OCT-27-2008 14:00:00      0.015     0.000     0.000    24.000
  OCT-27-2008 15:00:00      0.013     0.000     0.000    24.000
  OCT-27-2008 16:00:00      0.012     0.000     0.000    24.000
  OCT-27-2008 17:00:00      0.011     0.000     0.000    24.000
  OCT-27-2008 18:00:00      0.010     0.000     0.000    24.000
  OCT-27-2008 19:00:00      0.009     0.000     0.000    24.000
  OCT-27-2008 20:00:00      0.008     0.000     0.000    24.000
  OCT-27-2008 21:00:00      0.008     0.000     0.000    24.000
  OCT-27-2008 22:00:00      0.042     0.000     0.000    24.000
  OCT-27-2008 23:00:00     22.558     0.000     0.181    24.181
  OCT-28-2008 00:00:00    194.714     0.000     1.188    25.188
  OCT-28-2008 01:00:00    227.109     0.000     1.307    25.307
  OCT-28-2008 02:00:00    214.044     0.000     1.260    25.260
  OCT-28-2008 03:00:00    123.042     0.000     0.894    24.894
  OCT-28-2008 04:00:00     80.551     0.000     0.645    24.645
  OCT-28-2008 05:00:00     58.796     0.000     0.471    24.471
  OCT-28-2008 06:00:00     93.163     0.000     0.746    24.746
  OCT-28-2008 07:00:00    143.755     0.000     0.984    24.984
  OCT-28-2008 08:00:00    173.338     0.000     1.105    25.105
  OCT-28-2008 09:00:00    126.256     0.000     0.908    24.908
  OCT-28-2008 10:00:00    120.459     0.000     0.882    24.882
  OCT-28-2008 11:00:00    177.486     0.000     1.121    25.121
  OCT-28-2008 12:00:00    215.681     0.000     1.266    25.266
  OCT-28-2008 13:00:00    442.335     0.000     1.990    25.990
  OCT-28-2008 14:00:00    356.186     0.000     1.734    25.734
  OCT-28-2008 15:00:00    220.956     0.000     1.285    25.285
  OCT-28-2008 16:00:00    236.270     0.000     1.340    25.340
  OCT-28-2008 17:00:00    143.040     0.000     0.981    24.981
  OCT-28-2008 18:00:00     44.164     0.000     0.354    24.354
  OCT-28-2008 19:00:00     15.759     0.000     0.126    24.126
  OCT-28-2008 20:00:00      7.366     0.000     0.059    24.059
  OCT-28-2008 21:00:00      4.042     0.000     0.032    24.032
  OCT-28-2008 22:00:00      2.451     0.000     0.020    24.020
  OCT-28-2008 23:00:00      1.586     0.000     0.013    24.013
  OCT-29-2008 00:00:00      1.076     0.000     0.009    24.009
  OCT-29-2008 01:00:00      0.755     0.000     0.006    24.006
  OCT-29-2008 02:00:00      0.545     0.000     0.004    24.004
  OCT-29-2008 03:00:00      0.405     0.000     0.003    24.003
  OCT-29-2008 04:00:00      0.308     0.000     0.002    24.002
  OCT-29-2008 05:00:00      0.239     0.000     0.002    24.002
  OCT-29-2008 06:00:00      0.188     0.000     0.002    24.002
  OCT-29-2008 07:00:00      0.151     0.000     0.001    24.001
  OCT-29-2008 08:00:00      0.123     0.000     0.001    24.001
  OCT-29-2008 09:00:00      0.102     0.000     0.001    24.001
  OCT-29-2008 10:00:00      0.085     0.000     0.001    24.001
  OCT-29-2008 11:00:00      0.072     0.000     0.001    24.001
  OCT-29-2008 12:00:00      0.062     0.000     0.000    24.000
  OCT-29-2008 13:00:00      0.053     0.000     0.000    24.000
  OCT-29-2008 14:00:00      0.046     0.000     0.000    24.000
  OCT-29-2008 15:00:00      0.020     0.000     0.000    24.000
  OCT-29-2008 16:00:00      0.027     0.000     0.000    24.000
  OCT-29-2008 17:00:00      0.028     0.000     0.000    24.000
  OCT-29-2008 18:00:00      0.027     0.000     0.000    24.000
  OCT-29-2008 19:00:00      0.025     0.000     0.000    24.000
  OCT-29-2008 20:00:00      0.023     0.000     0.000    24.000
  OCT-29-2008 21:00:00      0.021     0.000     0.000    24.000
  OCT-29-2008 22:00:00      0.019     0.000     0.000    24.000
  OCT-29-2008 23:00:00      0.017     0.000     0.000    24.000
  OCT-30-2008 00:00:00      0.016     0.000     0.000    24.000
  OCT-30-2008 01:00:00      0.014     0.000     0.000    24.000
  OCT-30-2008 02:00:00      0.013     0.000     0.000    24.000
  OCT-30-2008 03:00:00      0.012     0.000     0.000    24.000
  OCT-30-2008 04:00:00      0.011     0.000     0.000    24.000
  OCT-30-2008 05:00:00      0.010     0.000     0.000    24.000
  OCT-30-2008 06:00:00      0.009     0.000     0.000    24.000
  OCT-30-2008 07:00:00      0.008     0.000     0.000    24.000
  OCT-30-2008 08:00:00      0.008     0.000     0.000    24.000
  OCT-30-2008 09:00:00      0.007     0.000     0.000    24.000
  OCT-30-2008 10:00:00      0.007     0.000     0.000    24.000
  OCT-30-2008 11:00:00      0.006     0.000     0.000    24.000
  OCT-30-2008 12:00:00      0.006     0.000     0.000    24.000
  OCT-30-2008 13:00:00      0.005     0.000     0.000    24.000
  OCT-30-2008 14:00:00      0.005     0.000     0.000    24.000
  OCT-30-2008 15:00:00      0.004     0.000     0.000    24.000
  OCT-30-2008 16:00:00      0.004     0.000     0.000    24.000
  OCT-30-2008 17:00:00      0.004     0.000     0.000    24.000
  OCT-30-2008 18:00:00      0.004     0.000     0.000    24.000
  OCT-30-2008 19:00:00      0.003     0.000     0.000    24.000
  OCT-30-2008 20:00:00      0.003     0.000     0.000    24.000
  OCT-30-2008 21:00:00      0.003     0.000     0.000    24.000
  OCT-30-2008 22:00:00      0.003     0.000     0.000    24.000
  OCT-30-2008 23:00:00      0.003     0.000     0.000    24.000
  OCT-31-2008 00:00:00      0.002     0.000     0.000    24.000
  OCT-31-2008 01:00:00      0.002     0.000     0.000    24.000
  OCT-31-2008 02:00:00      0.002     0.000     0.000    24.000
  OCT-31-2008 03:00:00      0.002     0.000     0.000    24.000
  OCT-31-2008 04:00:00      0.002     0.000     0.000    24.000
  OCT-31-2008 05:00:00      0.002     0.000     0.000    24.000
  OCT-31-2008 06:00:00      0.002     0.000     0.000    24.000
  OCT-31-2008 07:00:00      0.001     0.000     0.000    24.000
  OCT-31-2008 08:00:00      0.001     0.000     0.000    24.000
  OCT-31-2008 09:00:00      0.001     0.000     0.000    24.000
  OCT-31-2008 10:00:00      0.001     0.000     0.000    24.000
  OCT-31-2008 11:00:00      0.001     0.000     0.000    24.000
  OCT-31-2008 12:00:00      0.001     0.000     0.000    24.000
  OCT-31-2008 13:00:00      0.001     0.000     0.000    24.000
  OCT-31-2008 14:00:00      0.001     0.000     0.000    24.000
  OCT-31-2008 15:00:00      0.001     0.000     0.000    24.000
  OCT-31-2008 16:00:00      0.001     0.000     0.000    24.000
  OCT-31-2008 17:00:00      0.001     0.000     0.000    24.000
  OCT-31-2008 18:00:00      0.001     0.000     0.000    24.000
  OCT-31-2008 19:00:00      0.001     0.000     0.000    24.000
  OCT-31-2008 20:00:00      0.001     0.000     0.000    24.000
  OCT-31-2008 21:00:00      0.001     0.000     0.000    24.000
  OCT-31-2008 22:00:00      0.001     0.000     0.000    24.000
  OCT-31-2008 23:00:00      0.001     0.000     0.000    24.000
  NOV-01-2008 00:00:00      0.001     0.000     0.000    24.000
  

  Analysis begun on:  Fri Sep 23 13:06:43 2016
  Analysis ended on:  Fri Sep 23 13:06:54 2016
  Total elapsed time: 00:00:11